
---------- Begin Simulation Statistics ----------
sim_seconds                                  0.835421                       # Number of seconds simulated
sim_ticks                                835420719000                       # Number of ticks simulated
final_tick                               835420719000                       # Number of ticks from beginning of simulation (restored from checkpoints and never reset)
sim_freq                                 1000000000000                       # Frequency of simulated ticks
host_inst_rate                                 366384                       # Simulator instruction rate (inst/s)
host_op_rate                                   366384                       # Simulator op (including micro ops) rate (op/s)
host_tick_rate                             6955054090                       # Simulator tick rate (ticks/s)
host_mem_usage                                6708372                       # Number of bytes of host memory used
host_seconds                                   120.12                       # Real time elapsed on the host
sim_insts                                    44008943                       # Number of instructions simulated
sim_ops                                      44008943                       # Number of ops (including micro ops) simulated
system.clk_domain.voltage_domain.voltage            1                       # Voltage in Volts
system.clk_domain.clock                          1000                       # Clock period in ticks
system.mem_ctrl.pwrStateResidencyTicks::UNDEFINED 835420719000                       # Cumulative time (in ticks) in various power states
system.mem_ctrl.bytes_read::cpu.inst       1216218048                       # Number of bytes read from this memory
system.mem_ctrl.bytes_read::cpu.data        896171968                       # Number of bytes read from this memory
system.mem_ctrl.bytes_read::total          2112390016                       # Number of bytes read from this memory
system.mem_ctrl.bytes_inst_read::cpu.inst   1216218048                       # Number of instructions bytes read from this memory
system.mem_ctrl.bytes_inst_read::total     1216218048                       # Number of instructions bytes read from this memory
system.mem_ctrl.bytes_written::writebacks   2112388992                       # Number of bytes written to this memory
system.mem_ctrl.bytes_written::total       2112388992                       # Number of bytes written to this memory
system.mem_ctrl.num_reads::cpu.inst          19003407                       # Number of read requests responded to by this memory
system.mem_ctrl.num_reads::cpu.data          14002687                       # Number of read requests responded to by this memory
system.mem_ctrl.num_reads::total             33006094                       # Number of read requests responded to by this memory
system.mem_ctrl.num_writes::writebacks       33006078                       # Number of write requests responded to by this memory
system.mem_ctrl.num_writes::total            33006078                       # Number of write requests responded to by this memory
system.mem_ctrl.bw_read::cpu.inst          1455815041                       # Total read bandwidth from this memory (bytes/s)
system.mem_ctrl.bw_read::cpu.data          1072719347                       # Total read bandwidth from this memory (bytes/s)
system.mem_ctrl.bw_read::total             2528534387                       # Total read bandwidth from this memory (bytes/s)
system.mem_ctrl.bw_inst_read::cpu.inst     1455815041                       # Instruction read bandwidth from this memory (bytes/s)
system.mem_ctrl.bw_inst_read::total        1455815041                       # Instruction read bandwidth from this memory (bytes/s)
system.mem_ctrl.bw_write::writebacks       2528533162                       # Write bandwidth from this memory (bytes/s)
system.mem_ctrl.bw_write::total            2528533162                       # Write bandwidth from this memory (bytes/s)
system.mem_ctrl.bw_total::writebacks       2528533162                       # Total bandwidth to/from this memory (bytes/s)
system.mem_ctrl.bw_total::cpu.inst         1455815041                       # Total bandwidth to/from this memory (bytes/s)
system.mem_ctrl.bw_total::cpu.data         1072719347                       # Total bandwidth to/from this memory (bytes/s)
system.mem_ctrl.bw_total::total            5057067549                       # Total bandwidth to/from this memory (bytes/s)
system.mem_ctrl.readReqs                     33006094                       # Number of read requests accepted
system.mem_ctrl.writeReqs                    33006078                       # Number of write requests accepted
system.mem_ctrl.readBursts                   33006094                       # Number of DRAM read bursts, including those serviced by the write queue
system.mem_ctrl.writeBursts                  33006078                       # Number of DRAM write bursts, including those merged in the write queue
system.mem_ctrl.bytesReadDRAM                 8617152                       # Total number of bytes read from DRAM
system.mem_ctrl.bytesReadWrQ               2103772864                       # Total number of bytes read from write queue
system.mem_ctrl.bytesWritten                  9099712                       # Total number of bytes written to DRAM
system.mem_ctrl.bytesReadSys               2112390016                       # Total read bytes from the system interface side
system.mem_ctrl.bytesWrittenSys            2112388992                       # Total written bytes from the system interface side
system.mem_ctrl.servicedByWrQ                32871451                       # Number of DRAM read bursts serviced by the write queue
system.mem_ctrl.mergedWrBursts               32863866                       # Number of DRAM write bursts merged with an existing one
system.mem_ctrl.neitherReadNorWriteReqs             0                       # Number of requests that are neither read nor write
system.mem_ctrl.perBankRdBursts::0              11450                       # Per bank write bursts
system.mem_ctrl.perBankRdBursts::1               8185                       # Per bank write bursts
system.mem_ctrl.perBankRdBursts::2               9478                       # Per bank write bursts
system.mem_ctrl.perBankRdBursts::3               8057                       # Per bank write bursts
system.mem_ctrl.perBankRdBursts::4               7972                       # Per bank write bursts
system.mem_ctrl.perBankRdBursts::5               7955                       # Per bank write bursts
system.mem_ctrl.perBankRdBursts::6               7922                       # Per bank write bursts
system.mem_ctrl.perBankRdBursts::7               7879                       # Per bank write bursts
system.mem_ctrl.perBankRdBursts::8               7987                       # Per bank write bursts
system.mem_ctrl.perBankRdBursts::9               8279                       # Per bank write bursts
system.mem_ctrl.perBankRdBursts::10              8011                       # Per bank write bursts
system.mem_ctrl.perBankRdBursts::11              8239                       # Per bank write bursts
system.mem_ctrl.perBankRdBursts::12              8273                       # Per bank write bursts
system.mem_ctrl.perBankRdBursts::13              8272                       # Per bank write bursts
system.mem_ctrl.perBankRdBursts::14              8311                       # Per bank write bursts
system.mem_ctrl.perBankRdBursts::15              8373                       # Per bank write bursts
system.mem_ctrl.perBankWrBursts::0              15767                       # Per bank write bursts
system.mem_ctrl.perBankWrBursts::1               8270                       # Per bank write bursts
system.mem_ctrl.perBankWrBursts::2              11016                       # Per bank write bursts
system.mem_ctrl.perBankWrBursts::3               8146                       # Per bank write bursts
system.mem_ctrl.perBankWrBursts::4               8063                       # Per bank write bursts
system.mem_ctrl.perBankWrBursts::5               8047                       # Per bank write bursts
system.mem_ctrl.perBankWrBursts::6               8005                       # Per bank write bursts
system.mem_ctrl.perBankWrBursts::7               7969                       # Per bank write bursts
system.mem_ctrl.perBankWrBursts::8               8125                       # Per bank write bursts
system.mem_ctrl.perBankWrBursts::9               8428                       # Per bank write bursts
system.mem_ctrl.perBankWrBursts::10              8148                       # Per bank write bursts
system.mem_ctrl.perBankWrBursts::11              8384                       # Per bank write bursts
system.mem_ctrl.perBankWrBursts::12              8412                       # Per bank write bursts
system.mem_ctrl.perBankWrBursts::13              8424                       # Per bank write bursts
system.mem_ctrl.perBankWrBursts::14              8453                       # Per bank write bursts
system.mem_ctrl.perBankWrBursts::15              8526                       # Per bank write bursts
system.mem_ctrl.numRdRetry                          0                       # Number of times read queue was full causing retry
system.mem_ctrl.numWrRetry                          0                       # Number of times write queue was full causing retry
system.mem_ctrl.totGap                   835420715000                       # Total gap between requests
system.mem_ctrl.readPktSize::0                      0                       # Read request sizes (log2)
system.mem_ctrl.readPktSize::1                      0                       # Read request sizes (log2)
system.mem_ctrl.readPktSize::2                      0                       # Read request sizes (log2)
system.mem_ctrl.readPktSize::3                      0                       # Read request sizes (log2)
system.mem_ctrl.readPktSize::4                      0                       # Read request sizes (log2)
system.mem_ctrl.readPktSize::5                      0                       # Read request sizes (log2)
system.mem_ctrl.readPktSize::6               33006094                       # Read request sizes (log2)
system.mem_ctrl.writePktSize::0                     0                       # Write request sizes (log2)
system.mem_ctrl.writePktSize::1                     0                       # Write request sizes (log2)
system.mem_ctrl.writePktSize::2                     0                       # Write request sizes (log2)
system.mem_ctrl.writePktSize::3                     0                       # Write request sizes (log2)
system.mem_ctrl.writePktSize::4                     0                       # Write request sizes (log2)
system.mem_ctrl.writePktSize::5                     0                       # Write request sizes (log2)
system.mem_ctrl.writePktSize::6              33006078                       # Write request sizes (log2)
system.mem_ctrl.rdQLenPdf::0                   134643                       # What read queue length does an incoming req see
system.mem_ctrl.rdQLenPdf::1                        0                       # What read queue length does an incoming req see
system.mem_ctrl.rdQLenPdf::2                        0                       # What read queue length does an incoming req see
system.mem_ctrl.rdQLenPdf::3                        0                       # What read queue length does an incoming req see
system.mem_ctrl.rdQLenPdf::4                        0                       # What read queue length does an incoming req see
system.mem_ctrl.rdQLenPdf::5                        0                       # What read queue length does an incoming req see
system.mem_ctrl.rdQLenPdf::6                        0                       # What read queue length does an incoming req see
system.mem_ctrl.rdQLenPdf::7                        0                       # What read queue length does an incoming req see
system.mem_ctrl.rdQLenPdf::8                        0                       # What read queue length does an incoming req see
system.mem_ctrl.rdQLenPdf::9                        0                       # What read queue length does an incoming req see
system.mem_ctrl.rdQLenPdf::10                       0                       # What read queue length does an incoming req see
system.mem_ctrl.rdQLenPdf::11                       0                       # What read queue length does an incoming req see
system.mem_ctrl.rdQLenPdf::12                       0                       # What read queue length does an incoming req see
system.mem_ctrl.rdQLenPdf::13                       0                       # What read queue length does an incoming req see
system.mem_ctrl.rdQLenPdf::14                       0                       # What read queue length does an incoming req see
system.mem_ctrl.rdQLenPdf::15                       0                       # What read queue length does an incoming req see
system.mem_ctrl.rdQLenPdf::16                       0                       # What read queue length does an incoming req see
system.mem_ctrl.rdQLenPdf::17                       0                       # What read queue length does an incoming req see
system.mem_ctrl.rdQLenPdf::18                       0                       # What read queue length does an incoming req see
system.mem_ctrl.rdQLenPdf::19                       0                       # What read queue length does an incoming req see
system.mem_ctrl.rdQLenPdf::20                       0                       # What read queue length does an incoming req see
system.mem_ctrl.rdQLenPdf::21                       0                       # What read queue length does an incoming req see
system.mem_ctrl.rdQLenPdf::22                       0                       # What read queue length does an incoming req see
system.mem_ctrl.rdQLenPdf::23                       0                       # What read queue length does an incoming req see
system.mem_ctrl.rdQLenPdf::24                       0                       # What read queue length does an incoming req see
system.mem_ctrl.rdQLenPdf::25                       0                       # What read queue length does an incoming req see
system.mem_ctrl.rdQLenPdf::26                       0                       # What read queue length does an incoming req see
system.mem_ctrl.rdQLenPdf::27                       0                       # What read queue length does an incoming req see
system.mem_ctrl.rdQLenPdf::28                       0                       # What read queue length does an incoming req see
system.mem_ctrl.rdQLenPdf::29                       0                       # What read queue length does an incoming req see
system.mem_ctrl.rdQLenPdf::30                       0                       # What read queue length does an incoming req see
system.mem_ctrl.rdQLenPdf::31                       0                       # What read queue length does an incoming req see
system.mem_ctrl.wrQLenPdf::0                        1                       # What write queue length does an incoming req see
system.mem_ctrl.wrQLenPdf::1                        1                       # What write queue length does an incoming req see
system.mem_ctrl.wrQLenPdf::2                        1                       # What write queue length does an incoming req see
system.mem_ctrl.wrQLenPdf::3                        1                       # What write queue length does an incoming req see
system.mem_ctrl.wrQLenPdf::4                        1                       # What write queue length does an incoming req see
system.mem_ctrl.wrQLenPdf::5                        1                       # What write queue length does an incoming req see
system.mem_ctrl.wrQLenPdf::6                        1                       # What write queue length does an incoming req see
system.mem_ctrl.wrQLenPdf::7                        1                       # What write queue length does an incoming req see
system.mem_ctrl.wrQLenPdf::8                        1                       # What write queue length does an incoming req see
system.mem_ctrl.wrQLenPdf::9                        1                       # What write queue length does an incoming req see
system.mem_ctrl.wrQLenPdf::10                       1                       # What write queue length does an incoming req see
system.mem_ctrl.wrQLenPdf::11                       1                       # What write queue length does an incoming req see
system.mem_ctrl.wrQLenPdf::12                       1                       # What write queue length does an incoming req see
system.mem_ctrl.wrQLenPdf::13                       1                       # What write queue length does an incoming req see
system.mem_ctrl.wrQLenPdf::14                       1                       # What write queue length does an incoming req see
system.mem_ctrl.wrQLenPdf::15                    6325                       # What write queue length does an incoming req see
system.mem_ctrl.wrQLenPdf::16                    6907                       # What write queue length does an incoming req see
system.mem_ctrl.wrQLenPdf::17                    8009                       # What write queue length does an incoming req see
system.mem_ctrl.wrQLenPdf::18                    9391                       # What write queue length does an incoming req see
system.mem_ctrl.wrQLenPdf::19                    7970                       # What write queue length does an incoming req see
system.mem_ctrl.wrQLenPdf::20                    7972                       # What write queue length does an incoming req see
system.mem_ctrl.wrQLenPdf::21                    7964                       # What write queue length does an incoming req see
system.mem_ctrl.wrQLenPdf::22                    7965                       # What write queue length does an incoming req see
system.mem_ctrl.wrQLenPdf::23                    7990                       # What write queue length does an incoming req see
system.mem_ctrl.wrQLenPdf::24                    7969                       # What write queue length does an incoming req see
system.mem_ctrl.wrQLenPdf::25                    7975                       # What write queue length does an incoming req see
system.mem_ctrl.wrQLenPdf::26                    7967                       # What write queue length does an incoming req see
system.mem_ctrl.wrQLenPdf::27                    7964                       # What write queue length does an incoming req see
system.mem_ctrl.wrQLenPdf::28                    7964                       # What write queue length does an incoming req see
system.mem_ctrl.wrQLenPdf::29                    7976                       # What write queue length does an incoming req see
system.mem_ctrl.wrQLenPdf::30                    7963                       # What write queue length does an incoming req see
system.mem_ctrl.wrQLenPdf::31                    7963                       # What write queue length does an incoming req see
system.mem_ctrl.wrQLenPdf::32                    7963                       # What write queue length does an incoming req see
system.mem_ctrl.wrQLenPdf::33                       0                       # What write queue length does an incoming req see
system.mem_ctrl.wrQLenPdf::34                       0                       # What write queue length does an incoming req see
system.mem_ctrl.wrQLenPdf::35                       0                       # What write queue length does an incoming req see
system.mem_ctrl.wrQLenPdf::36                       0                       # What write queue length does an incoming req see
system.mem_ctrl.wrQLenPdf::37                       0                       # What write queue length does an incoming req see
system.mem_ctrl.wrQLenPdf::38                       0                       # What write queue length does an incoming req see
system.mem_ctrl.wrQLenPdf::39                       0                       # What write queue length does an incoming req see
system.mem_ctrl.wrQLenPdf::40                       0                       # What write queue length does an incoming req see
system.mem_ctrl.wrQLenPdf::41                       0                       # What write queue length does an incoming req see
system.mem_ctrl.wrQLenPdf::42                       0                       # What write queue length does an incoming req see
system.mem_ctrl.wrQLenPdf::43                       0                       # What write queue length does an incoming req see
system.mem_ctrl.wrQLenPdf::44                       0                       # What write queue length does an incoming req see
system.mem_ctrl.wrQLenPdf::45                       0                       # What write queue length does an incoming req see
system.mem_ctrl.wrQLenPdf::46                       0                       # What write queue length does an incoming req see
system.mem_ctrl.wrQLenPdf::47                       0                       # What write queue length does an incoming req see
system.mem_ctrl.wrQLenPdf::48                       0                       # What write queue length does an incoming req see
system.mem_ctrl.wrQLenPdf::49                       0                       # What write queue length does an incoming req see
system.mem_ctrl.wrQLenPdf::50                       0                       # What write queue length does an incoming req see
system.mem_ctrl.wrQLenPdf::51                       0                       # What write queue length does an incoming req see
system.mem_ctrl.wrQLenPdf::52                       0                       # What write queue length does an incoming req see
system.mem_ctrl.wrQLenPdf::53                       0                       # What write queue length does an incoming req see
system.mem_ctrl.wrQLenPdf::54                       0                       # What write queue length does an incoming req see
system.mem_ctrl.wrQLenPdf::55                       0                       # What write queue length does an incoming req see
system.mem_ctrl.wrQLenPdf::56                       0                       # What write queue length does an incoming req see
system.mem_ctrl.wrQLenPdf::57                       0                       # What write queue length does an incoming req see
system.mem_ctrl.wrQLenPdf::58                       0                       # What write queue length does an incoming req see
system.mem_ctrl.wrQLenPdf::59                       0                       # What write queue length does an incoming req see
system.mem_ctrl.wrQLenPdf::60                       0                       # What write queue length does an incoming req see
system.mem_ctrl.wrQLenPdf::61                       0                       # What write queue length does an incoming req see
system.mem_ctrl.wrQLenPdf::62                       0                       # What write queue length does an incoming req see
system.mem_ctrl.wrQLenPdf::63                       0                       # What write queue length does an incoming req see
system.mem_ctrl.bytesPerActivate::samples       115481                       # Bytes accessed per row activation
system.mem_ctrl.bytesPerActivate::mean     153.400819                       # Bytes accessed per row activation
system.mem_ctrl.bytesPerActivate::gmean     96.757043                       # Bytes accessed per row activation
system.mem_ctrl.bytesPerActivate::stdev    236.956418                       # Bytes accessed per row activation
system.mem_ctrl.bytesPerActivate::0-127         77038     66.71%     66.71% # Bytes accessed per row activation
system.mem_ctrl.bytesPerActivate::128-255        26771     23.18%     89.89% # Bytes accessed per row activation
system.mem_ctrl.bytesPerActivate::256-383         3009      2.61%     92.50% # Bytes accessed per row activation
system.mem_ctrl.bytesPerActivate::384-511          426      0.37%     92.87% # Bytes accessed per row activation
system.mem_ctrl.bytesPerActivate::512-639          326      0.28%     93.15% # Bytes accessed per row activation
system.mem_ctrl.bytesPerActivate::640-767          281      0.24%     93.39% # Bytes accessed per row activation
system.mem_ctrl.bytesPerActivate::768-895          252      0.22%     93.61% # Bytes accessed per row activation
system.mem_ctrl.bytesPerActivate::896-1023          483      0.42%     94.03% # Bytes accessed per row activation
system.mem_ctrl.bytesPerActivate::1024-1151         6895      5.97%    100.00% # Bytes accessed per row activation
system.mem_ctrl.bytesPerActivate::total        115481                       # Bytes accessed per row activation
system.mem_ctrl.rdPerTurnAround::samples         7963                       # Reads before turning the bus around for writes
system.mem_ctrl.rdPerTurnAround::mean       16.907196                       # Reads before turning the bus around for writes
system.mem_ctrl.rdPerTurnAround::gmean      16.872552                       # Reads before turning the bus around for writes
system.mem_ctrl.rdPerTurnAround::stdev       1.104239                       # Reads before turning the bus around for writes
system.mem_ctrl.rdPerTurnAround::12-13              8      0.10%      0.10% # Reads before turning the bus around for writes
system.mem_ctrl.rdPerTurnAround::14-15            553      6.94%      7.05% # Reads before turning the bus around for writes
system.mem_ctrl.rdPerTurnAround::16-17           4055     50.92%     57.97% # Reads before turning the bus around for writes
system.mem_ctrl.rdPerTurnAround::18-19           3346     42.02%     99.99% # Reads before turning the bus around for writes
system.mem_ctrl.rdPerTurnAround::48-49              1      0.01%    100.00% # Reads before turning the bus around for writes
system.mem_ctrl.rdPerTurnAround::total           7963                       # Reads before turning the bus around for writes
system.mem_ctrl.wrPerTurnAround::samples         7963                       # Writes before turning the bus around for reads
system.mem_ctrl.wrPerTurnAround::mean       17.855456                       # Writes before turning the bus around for reads
system.mem_ctrl.wrPerTurnAround::gmean      17.843994                       # Writes before turning the bus around for reads
system.mem_ctrl.wrPerTurnAround::stdev       0.632240                       # Writes before turning the bus around for reads
system.mem_ctrl.wrPerTurnAround::16               365      4.58%      4.58% # Writes before turning the bus around for reads
system.mem_ctrl.wrPerTurnAround::17              1134     14.24%     18.82% # Writes before turning the bus around for reads
system.mem_ctrl.wrPerTurnAround::18              5770     72.46%     91.28% # Writes before turning the bus around for reads
system.mem_ctrl.wrPerTurnAround::19               677      8.50%     99.79% # Writes before turning the bus around for reads
system.mem_ctrl.wrPerTurnAround::20                15      0.19%     99.97% # Writes before turning the bus around for reads
system.mem_ctrl.wrPerTurnAround::21                 2      0.03%    100.00% # Writes before turning the bus around for reads
system.mem_ctrl.wrPerTurnAround::total           7963                       # Writes before turning the bus around for reads
system.mem_ctrl.totQLat                    6337165750                       # Total ticks spent queuing
system.mem_ctrl.totMemAccLat               8861722000                       # Total ticks spent from burst creation until serviced by the DRAM
system.mem_ctrl.totBusLat                   673215000                       # Total ticks spent in databus transfers
system.mem_ctrl.avgQLat                      47066.43                       # Average queueing delay per DRAM burst
system.mem_ctrl.avgBusLat                     5000.00                       # Average bus latency per DRAM burst
system.mem_ctrl.avgMemAccLat                 65816.43                       # Average memory access latency per DRAM burst
system.mem_ctrl.avgRdBW                         10.31                       # Average DRAM read bandwidth in MiByte/s
system.mem_ctrl.avgWrBW                         10.89                       # Average achieved write bandwidth in MiByte/s
system.mem_ctrl.avgRdBWSys                    2528.53                       # Average system read bandwidth in MiByte/s
system.mem_ctrl.avgWrBWSys                    2528.53                       # Average system write bandwidth in MiByte/s
system.mem_ctrl.peakBW                       12800.00                       # Theoretical peak bandwidth in MiByte/s
system.mem_ctrl.busUtil                          0.17                       # Data bus utilization in percentage
system.mem_ctrl.busUtilRead                      0.08                       # Data bus utilization in percentage for reads
system.mem_ctrl.busUtilWrite                     0.09                       # Data bus utilization in percentage for writes
system.mem_ctrl.avgRdQLen                        1.00                       # Average read queue length when enqueuing
system.mem_ctrl.avgWrQLen                       24.71                       # Average write queue length when enqueuing
system.mem_ctrl.readRowHits                     30918                       # Number of row buffer hits during reads
system.mem_ctrl.writeRowHits                   130420                       # Number of row buffer hits during writes
system.mem_ctrl.readRowHitRate                  22.96                       # Row buffer hit rate for reads
system.mem_ctrl.writeRowHitRate                 91.71                       # Row buffer hit rate for writes
system.mem_ctrl.avgGap                       12655.56                       # Average gap between requests
system.mem_ctrl.pageHitRate                     58.28                       # Row buffer hit rate, read and write combined
system.mem_ctrl_0.actEnergy                 428442840                       # Energy for activate commands per rank (pJ)
system.mem_ctrl_0.preEnergy                 227711385                       # Energy for precharge commands per rank (pJ)
system.mem_ctrl_0.readEnergy                491931720                       # Energy for read commands per rank (pJ)
system.mem_ctrl_0.writeEnergy               392977260                       # Energy for write commands per rank (pJ)
system.mem_ctrl_0.refreshEnergy          38798535360.000008                       # Energy for refresh commands per rank (pJ)
system.mem_ctrl_0.actBackEnergy            9725744130                       # Energy for active background per rank (pJ)
system.mem_ctrl_0.preBackEnergy            1301625600                       # Energy for precharge background per rank (pJ)
system.mem_ctrl_0.actPowerDownEnergy     102770874030                       # Energy for active power-down per rank (pJ)
system.mem_ctrl_0.prePowerDownEnergy      75498664320                       # Energy for precharge power-down per rank (pJ)
system.mem_ctrl_0.selfRefreshEnergy       96741954855                       # Energy for self refresh per rank (pJ)
system.mem_ctrl_0.totalEnergy            326451687420                       # Total energy per rank (pJ)
system.mem_ctrl_0.averagePower             390.763216                       # Core power per rank (mW)
system.mem_ctrl_0.totalIdleTime          810542035500                       # Total Idle time Per DRAM Rank
system.mem_ctrl_0.memoryStateTime::IDLE    1950325000                       # Time in different power states
system.mem_ctrl_0.memoryStateTime::REF    16449944000                       # Time in different power states
system.mem_ctrl_0.memoryStateTime::SREF  388552544250                       # Time in different power states
system.mem_ctrl_0.memoryStateTime::PRE_PDN 196608192750                       # Time in different power states
system.mem_ctrl_0.memoryStateTime::ACT     6478231000                       # Time in different power states
system.mem_ctrl_0.memoryStateTime::ACT_PDN 225381482000                       # Time in different power states
system.mem_ctrl_1.actEnergy                 396141480                       # Energy for activate commands per rank (pJ)
system.mem_ctrl_1.preEnergy                 210539010                       # Energy for precharge commands per rank (pJ)
system.mem_ctrl_1.readEnergy                469419300                       # Energy for read commands per rank (pJ)
system.mem_ctrl_1.writeEnergy               349218000                       # Energy for write commands per rank (pJ)
system.mem_ctrl_1.refreshEnergy          39834203760.000008                       # Energy for refresh commands per rank (pJ)
system.mem_ctrl_1.actBackEnergy           11274637620                       # Energy for active background per rank (pJ)
system.mem_ctrl_1.preBackEnergy            1367011680                       # Energy for precharge background per rank (pJ)
system.mem_ctrl_1.actPowerDownEnergy     102451137660                       # Energy for active power-down per rank (pJ)
system.mem_ctrl_1.prePowerDownEnergy      77644422240                       # Energy for precharge power-down per rank (pJ)
system.mem_ctrl_1.selfRefreshEnergy       95072358240                       # Energy for self refresh per rank (pJ)
system.mem_ctrl_1.totalEnergy            329177357640                       # Total energy per rank (pJ)
system.mem_ctrl_1.averagePower             394.025848                       # Core power per rank (mW)
system.mem_ctrl_1.totalIdleTime          806897480250                       # Total Idle time Per DRAM Rank
system.mem_ctrl_1.memoryStateTime::IDLE    2124372000                       # Time in different power states
system.mem_ctrl_1.memoryStateTime::REF    16891188000                       # Time in different power states
system.mem_ctrl_1.memoryStateTime::SREF  380021288250                       # Time in different power states
system.mem_ctrl_1.memoryStateTime::PRE_PDN 202195310750                       # Time in different power states
system.mem_ctrl_1.memoryStateTime::ACT     9507246500                       # Time in different power states
system.mem_ctrl_1.memoryStateTime::ACT_PDN 224681313500                       # Time in different power states
system.pwrStateResidencyTicks::UNDEFINED 835420719000                       # Cumulative time (in ticks) in various power states
system.cache.pwrStateResidencyTicks::UNDEFINED 835420719000                       # Cumulative time (in ticks) in various power states
system.cache.hits                            25007050                       # Number of hits
system.cache.misses                          33006094                       # Number of misses
system.cache.missLatency::samples            33006094                       # Ticks for misses to the cache
system.cache.missLatency::mean           23553.455765                       # Ticks for misses to the cache
system.cache.missLatency::gmean          23323.486669                       # Ticks for misses to the cache
system.cache.missLatency::stdev           8408.111821                       # Ticks for misses to the cache
system.cache.missLatency::0-65535            32900154     99.68%     99.68% # Ticks for misses to the cache
system.cache.missLatency::65536-131071          92168      0.28%     99.96% # Ticks for misses to the cache
system.cache.missLatency::131072-196607          1759      0.01%     99.96% # Ticks for misses to the cache
system.cache.missLatency::196608-262143          6564      0.02%     99.98% # Ticks for misses to the cache
system.cache.missLatency::262144-327679           203      0.00%     99.98% # Ticks for misses to the cache
system.cache.missLatency::327680-393215           101      0.00%     99.98% # Ticks for misses to the cache
system.cache.missLatency::393216-458751             2      0.00%     99.98% # Ticks for misses to the cache
system.cache.missLatency::458752-524287            46      0.00%     99.98% # Ticks for misses to the cache
system.cache.missLatency::524288-589823             5      0.00%     99.98% # Ticks for misses to the cache
system.cache.missLatency::589824-655359          5092      0.02%    100.00% # Ticks for misses to the cache
system.cache.missLatency::655360-720895             0      0.00%    100.00% # Ticks for misses to the cache
system.cache.missLatency::720896-786431             0      0.00%    100.00% # Ticks for misses to the cache
system.cache.missLatency::786432-851967             0      0.00%    100.00% # Ticks for misses to the cache
system.cache.missLatency::851968-917503             0      0.00%    100.00% # Ticks for misses to the cache
system.cache.missLatency::917504-983039             0      0.00%    100.00% # Ticks for misses to the cache
system.cache.missLatency::983040-1.04858e+06            0      0.00%    100.00% # Ticks for misses to the cache
system.cache.missLatency::total              33006094                       # Ticks for misses to the cache
system.cache.hitRatio                        0.431058                       # The ratio of hits to the total accesses to the cache
system.cpu.dtb.fetch_hits                           0                       # ITB hits
system.cpu.dtb.fetch_misses                         0                       # ITB misses
system.cpu.dtb.fetch_acv                            0                       # ITB acv
system.cpu.dtb.fetch_accesses                       0                       # ITB accesses
system.cpu.dtb.read_hits                     10001310                       # DTB read hits
system.cpu.dtb.read_misses                        516                       # DTB read misses
system.cpu.dtb.read_acv                             0                       # DTB read access violations
system.cpu.dtb.read_accesses                 10001826                       # DTB read accesses
system.cpu.dtb.write_hits                     4001460                       # DTB write hits
system.cpu.dtb.write_misses                       915                       # DTB write misses
system.cpu.dtb.write_acv                            0                       # DTB write access violations
system.cpu.dtb.write_accesses                 4002375                       # DTB write accesses
system.cpu.dtb.data_hits                     14002770                       # DTB hits
system.cpu.dtb.data_misses                       1431                       # DTB misses
system.cpu.dtb.data_acv                             0                       # DTB access violations
system.cpu.dtb.data_accesses                 14004201                       # DTB accesses
system.cpu.itb.fetch_hits                    44010375                       # ITB hits
system.cpu.itb.fetch_misses                        19                       # ITB misses
system.cpu.itb.fetch_acv                            0                       # ITB acv
system.cpu.itb.fetch_accesses                44010394                       # ITB accesses
system.cpu.itb.read_hits                            0                       # DTB read hits
system.cpu.itb.read_misses                          0                       # DTB read misses
system.cpu.itb.read_acv                             0                       # DTB read access violations
system.cpu.itb.read_accesses                        0                       # DTB read accesses
system.cpu.itb.write_hits                           0                       # DTB write hits
system.cpu.itb.write_misses                         0                       # DTB write misses
system.cpu.itb.write_acv                            0                       # DTB write access violations
system.cpu.itb.write_accesses                       0                       # DTB write accesses
system.cpu.itb.data_hits                            0                       # DTB hits
system.cpu.itb.data_misses                          0                       # DTB misses
system.cpu.itb.data_acv                             0                       # DTB access violations
system.cpu.itb.data_accesses                        0                       # DTB accesses
system.cpu.workload.numSyscalls                    10                       # Number of system calls
system.cpu.pwrStateResidencyTicks::ON    835420719000                       # Cumulative time (in ticks) in various power states
system.cpu.numCycles                        835420719                       # number of cpu cycles simulated
system.cpu.numWorkItemsStarted                      0                       # number of work items this cpu started
system.cpu.numWorkItemsCompleted                    0                       # number of work items this cpu completed
system.cpu.committedInsts                    44008943                       # Number of instructions committed
system.cpu.committedOps                      44008943                       # Number of ops (including micro ops) committed
system.cpu.num_int_alu_accesses              42010290                       # Number of integer alu accesses
system.cpu.num_fp_alu_accesses                     16                       # Number of float alu accesses
system.cpu.num_vec_alu_accesses                     0                       # Number of vector alu accesses
system.cpu.num_func_calls                         231                       # number of times a function call or return occured
system.cpu.num_conditional_control_insts      2001271                       # number of instructions that are conditional controls
system.cpu.num_int_insts                     42010290                       # number of integer instructions
system.cpu.num_fp_insts                            16                       # number of float instructions
system.cpu.num_vec_insts                            0                       # number of vector instructions
system.cpu.num_int_register_reads            53014054                       # number of times the integer registers were read
system.cpu.num_int_register_writes           36006003                       # number of times the integer registers were written
system.cpu.num_fp_register_reads                   14                       # number of times the floating registers were read
system.cpu.num_fp_register_writes                   2                       # number of times the floating registers were written
system.cpu.num_vec_register_reads                   0                       # number of times the vector registers were read
system.cpu.num_vec_register_writes                  0                       # number of times the vector registers were written
system.cpu.num_mem_refs                      14004201                       # number of memory refs
system.cpu.num_load_insts                    10001826                       # Number of load instructions
system.cpu.num_store_insts                    4002375                       # Number of store instructions
system.cpu.num_idle_cycles                          0                       # Number of idle cycles
system.cpu.num_busy_cycles                  835420719                       # Number of busy cycles
system.cpu.not_idle_fraction                        1                       # Percentage of non-idle cycles
system.cpu.idle_fraction                            0                       # Percentage of idle cycles
system.cpu.Branches                           4001567                       # Number of branches fetched
system.cpu.op_class::No_OpClass                    22      0.00%      0.00% # Class of executed instruction
system.cpu.op_class::IntAlu                  30006141     68.18%     68.18% # Class of executed instruction
system.cpu.op_class::IntMult                        8      0.00%     68.18% # Class of executed instruction
system.cpu.op_class::IntDiv                         0      0.00%     68.18% # Class of executed instruction
system.cpu.op_class::FloatAdd                       2      0.00%     68.18% # Class of executed instruction
system.cpu.op_class::FloatCmp                       0      0.00%     68.18% # Class of executed instruction
system.cpu.op_class::FloatCvt                       0      0.00%     68.18% # Class of executed instruction
system.cpu.op_class::FloatMult                      0      0.00%     68.18% # Class of executed instruction
system.cpu.op_class::FloatMultAcc                   0      0.00%     68.18% # Class of executed instruction
system.cpu.op_class::FloatDiv                       0      0.00%     68.18% # Class of executed instruction
system.cpu.op_class::FloatMisc                      0      0.00%     68.18% # Class of executed instruction
system.cpu.op_class::FloatSqrt                      0      0.00%     68.18% # Class of executed instruction
system.cpu.op_class::SimdAdd                        0      0.00%     68.18% # Class of executed instruction
system.cpu.op_class::SimdAddAcc                     0      0.00%     68.18% # Class of executed instruction
system.cpu.op_class::SimdAlu                        0      0.00%     68.18% # Class of executed instruction
system.cpu.op_class::SimdCmp                        0      0.00%     68.18% # Class of executed instruction
system.cpu.op_class::SimdCvt                        0      0.00%     68.18% # Class of executed instruction
system.cpu.op_class::SimdMisc                       0      0.00%     68.18% # Class of executed instruction
system.cpu.op_class::SimdMult                       0      0.00%     68.18% # Class of executed instruction
system.cpu.op_class::SimdMultAcc                    0      0.00%     68.18% # Class of executed instruction
system.cpu.op_class::SimdShift                      0      0.00%     68.18% # Class of executed instruction
system.cpu.op_class::SimdShiftAcc                   0      0.00%     68.18% # Class of executed instruction
system.cpu.op_class::SimdSqrt                       0      0.00%     68.18% # Class of executed instruction
system.cpu.op_class::SimdFloatAdd                   0      0.00%     68.18% # Class of executed instruction
system.cpu.op_class::SimdFloatAlu                   0      0.00%     68.18% # Class of executed instruction
system.cpu.op_class::SimdFloatCmp                   0      0.00%     68.18% # Class of executed instruction
system.cpu.op_class::SimdFloatCvt                   0      0.00%     68.18% # Class of executed instruction
system.cpu.op_class::SimdFloatDiv                   0      0.00%     68.18% # Class of executed instruction
system.cpu.op_class::SimdFloatMisc                  0      0.00%     68.18% # Class of executed instruction
system.cpu.op_class::SimdFloatMult                  0      0.00%     68.18% # Class of executed instruction
system.cpu.op_class::SimdFloatMultAcc               0      0.00%     68.18% # Class of executed instruction
system.cpu.op_class::SimdFloatSqrt                  0      0.00%     68.18% # Class of executed instruction
system.cpu.op_class::MemRead                 10001825     22.73%     90.91% # Class of executed instruction
system.cpu.op_class::MemWrite                 4002362      9.09%    100.00% # Class of executed instruction
system.cpu.op_class::FloatMemRead                   1      0.00%    100.00% # Class of executed instruction
system.cpu.op_class::FloatMemWrite                 13      0.00%    100.00% # Class of executed instruction
system.cpu.op_class::IprAccess                      0      0.00%    100.00% # Class of executed instruction
system.cpu.op_class::InstPrefetch                   0      0.00%    100.00% # Class of executed instruction
system.cpu.op_class::total                   44010374                       # Class of executed instruction
system.membus.snoop_filter.tot_requests             0                       # Total number of requests made to the snoop filter.
system.membus.snoop_filter.hit_single_requests            0                       # Number of requests hitting in the snoop filter with a single holder of the requested data.
system.membus.snoop_filter.hit_multi_requests            0                       # Number of requests hitting in the snoop filter with multiple (>1) holders of the requested data.
system.membus.snoop_filter.tot_snoops               0                       # Total number of snoops made to the snoop filter.
system.membus.snoop_filter.hit_single_snoops            0                       # Number of snoops hitting in the snoop filter with a single holder of the requested data.
system.membus.snoop_filter.hit_multi_snoops            0                       # Number of snoops hitting in the snoop filter with multiple (>1) holders of the requested data.
system.membus.pwrStateResidencyTicks::UNDEFINED 835420719000                       # Cumulative time (in ticks) in various power states
system.membus.trans_dist::ReadReq            33006094                       # Transaction distribution
system.membus.trans_dist::ReadResp           33006094                       # Transaction distribution
system.membus.trans_dist::WritebackDirty     33006078                       # Transaction distribution
system.membus.pkt_count_system.cache.mem_side::system.mem_ctrl.port     99018266                       # Packet count per connected master and slave (bytes)
system.membus.pkt_count::total               99018266                       # Packet count per connected master and slave (bytes)
system.membus.pkt_size_system.cache.mem_side::system.mem_ctrl.port   4224779008                       # Cumulative packet size per connected master and slave (bytes)
system.membus.pkt_size::total              4224779008                       # Cumulative packet size per connected master and slave (bytes)
system.membus.snoops                                0                       # Total snoops (count)
system.membus.snoopTraffic                          0                       # Total snoop traffic (bytes)
system.membus.snoop_fanout::samples          33006094                       # Request fanout histogram
system.membus.snoop_fanout::mean                    0                       # Request fanout histogram
system.membus.snoop_fanout::stdev                   0                       # Request fanout histogram
system.membus.snoop_fanout::underflows              0      0.00%      0.00% # Request fanout histogram
system.membus.snoop_fanout::0                33006094    100.00%    100.00% # Request fanout histogram
system.membus.snoop_fanout::overflows               0      0.00%    100.00% # Request fanout histogram
system.membus.snoop_fanout::min_value               0                       # Request fanout histogram
system.membus.snoop_fanout::max_value               0                       # Request fanout histogram
system.membus.snoop_fanout::total            33006094                       # Request fanout histogram
system.membus.reqLayer0.occupancy        198036484000                       # Layer occupancy (ticks)
system.membus.reqLayer0.utilization              23.7                       # Layer utilization (%)
system.membus.respLayer0.occupancy       165089440000                       # Layer occupancy (ticks)
system.membus.respLayer0.utilization             19.8                       # Layer utilization (%)

---------- End Simulation Statistics   ----------
