
---------- Begin Simulation Statistics ----------
sim_seconds                                  0.000162                       # Number of seconds simulated
sim_ticks                                   161808000                       # Number of ticks simulated
final_tick                                  161808000                       # Number of ticks from beginning of simulation (restored from checkpoints and never reset)
sim_freq                                 1000000000000                       # Frequency of simulated ticks
host_inst_rate                                 381808                       # Simulator instruction rate (inst/s)
host_op_rate                                   381693                       # Simulator op (including micro ops) rate (op/s)
host_tick_rate                             4873881743                       # Simulator tick rate (ticks/s)
host_mem_usage                                6714516                       # Number of bytes of host memory used
host_seconds                                     0.03                       # Real time elapsed on the host
sim_insts                                       12668                       # Number of instructions simulated
sim_ops                                         12668                       # Number of ops (including micro ops) simulated
system.clk_domain.voltage_domain.voltage            1                       # Voltage in Volts
system.clk_domain.clock                          1000                       # Clock period in ticks
system.mem_ctrl.pwrStateResidencyTicks::UNDEFINED    161808000                       # Cumulative time (in ticks) in various power states
system.mem_ctrl.bytes_read::cpu.inst            84480                       # Number of bytes read from this memory
system.mem_ctrl.bytes_read::cpu.data            88960                       # Number of bytes read from this memory
system.mem_ctrl.bytes_read::total              173440                       # Number of bytes read from this memory
system.mem_ctrl.bytes_inst_read::cpu.inst        84480                       # Number of instructions bytes read from this memory
system.mem_ctrl.bytes_inst_read::total          84480                       # Number of instructions bytes read from this memory
system.mem_ctrl.bytes_written::writebacks       172416                       # Number of bytes written to this memory
system.mem_ctrl.bytes_written::total           172416                       # Number of bytes written to this memory
system.mem_ctrl.num_reads::cpu.inst              1320                       # Number of read requests responded to by this memory
system.mem_ctrl.num_reads::cpu.data              1390                       # Number of read requests responded to by this memory
system.mem_ctrl.num_reads::total                 2710                       # Number of read requests responded to by this memory
system.mem_ctrl.num_writes::writebacks           2694                       # Number of write requests responded to by this memory
system.mem_ctrl.num_writes::total                2694                       # Number of write requests responded to by this memory
system.mem_ctrl.bw_read::cpu.inst           522100267                       # Total read bandwidth from this memory (bytes/s)
system.mem_ctrl.bw_read::cpu.data           549787402                       # Total read bandwidth from this memory (bytes/s)
system.mem_ctrl.bw_read::total             1071887669                       # Total read bandwidth from this memory (bytes/s)
system.mem_ctrl.bw_inst_read::cpu.inst      522100267                       # Instruction read bandwidth from this memory (bytes/s)
system.mem_ctrl.bw_inst_read::total         522100267                       # Instruction read bandwidth from this memory (bytes/s)
system.mem_ctrl.bw_write::writebacks       1065559181                       # Write bandwidth from this memory (bytes/s)
system.mem_ctrl.bw_write::total            1065559181                       # Write bandwidth from this memory (bytes/s)
system.mem_ctrl.bw_total::writebacks       1065559181                       # Total bandwidth to/from this memory (bytes/s)
system.mem_ctrl.bw_total::cpu.inst          522100267                       # Total bandwidth to/from this memory (bytes/s)
system.mem_ctrl.bw_total::cpu.data          549787402                       # Total bandwidth to/from this memory (bytes/s)
system.mem_ctrl.bw_total::total            2137446851                       # Total bandwidth to/from this memory (bytes/s)
system.mem_ctrl.readReqs                         2710                       # Number of read requests accepted
system.mem_ctrl.writeReqs                        2694                       # Number of write requests accepted
system.mem_ctrl.readBursts                       2710                       # Number of DRAM read bursts, including those serviced by the write queue
system.mem_ctrl.writeBursts                      2694                       # Number of DRAM write bursts, including those merged in the write queue
system.mem_ctrl.bytesReadDRAM                  117760                       # Total number of bytes read from DRAM
system.mem_ctrl.bytesReadWrQ                    55680                       # Total number of bytes read from write queue
system.mem_ctrl.bytesWritten                   134080                       # Total number of bytes written to DRAM
system.mem_ctrl.bytesReadSys                   173440                       # Total read bytes from the system interface side
system.mem_ctrl.bytesWrittenSys                172416                       # Total written bytes from the system interface side
system.mem_ctrl.servicedByWrQ                     870                       # Number of DRAM read bursts serviced by the write queue
system.mem_ctrl.mergedWrBursts                    577                       # Number of DRAM write bursts merged with an existing one
system.mem_ctrl.neitherReadNorWriteReqs             0                       # Number of requests that are neither read nor write
system.mem_ctrl.perBankRdBursts::0                 81                       # Per bank write bursts
system.mem_ctrl.perBankRdBursts::1                  0                       # Per bank write bursts
system.mem_ctrl.perBankRdBursts::2                282                       # Per bank write bursts
system.mem_ctrl.perBankRdBursts::3                196                       # Per bank write bursts
system.mem_ctrl.perBankRdBursts::4                 89                       # Per bank write bursts
system.mem_ctrl.perBankRdBursts::5                101                       # Per bank write bursts
system.mem_ctrl.perBankRdBursts::6                355                       # Per bank write bursts
system.mem_ctrl.perBankRdBursts::7                 66                       # Per bank write bursts
system.mem_ctrl.perBankRdBursts::8                 51                       # Per bank write bursts
system.mem_ctrl.perBankRdBursts::9                299                       # Per bank write bursts
system.mem_ctrl.perBankRdBursts::10                20                       # Per bank write bursts
system.mem_ctrl.perBankRdBursts::11                48                       # Per bank write bursts
system.mem_ctrl.perBankRdBursts::12                16                       # Per bank write bursts
system.mem_ctrl.perBankRdBursts::13                48                       # Per bank write bursts
system.mem_ctrl.perBankRdBursts::14               104                       # Per bank write bursts
system.mem_ctrl.perBankRdBursts::15                84                       # Per bank write bursts
system.mem_ctrl.perBankWrBursts::0                 85                       # Per bank write bursts
system.mem_ctrl.perBankWrBursts::1                  0                       # Per bank write bursts
system.mem_ctrl.perBankWrBursts::2                292                       # Per bank write bursts
system.mem_ctrl.perBankWrBursts::3                216                       # Per bank write bursts
system.mem_ctrl.perBankWrBursts::4                106                       # Per bank write bursts
system.mem_ctrl.perBankWrBursts::5                102                       # Per bank write bursts
system.mem_ctrl.perBankWrBursts::6                388                       # Per bank write bursts
system.mem_ctrl.perBankWrBursts::7                 69                       # Per bank write bursts
system.mem_ctrl.perBankWrBursts::8                 57                       # Per bank write bursts
system.mem_ctrl.perBankWrBursts::9                426                       # Per bank write bursts
system.mem_ctrl.perBankWrBursts::10                26                       # Per bank write bursts
system.mem_ctrl.perBankWrBursts::11                48                       # Per bank write bursts
system.mem_ctrl.perBankWrBursts::12                17                       # Per bank write bursts
system.mem_ctrl.perBankWrBursts::13                53                       # Per bank write bursts
system.mem_ctrl.perBankWrBursts::14               113                       # Per bank write bursts
system.mem_ctrl.perBankWrBursts::15                97                       # Per bank write bursts
system.mem_ctrl.numRdRetry                          0                       # Number of times read queue was full causing retry
system.mem_ctrl.numWrRetry                          0                       # Number of times write queue was full causing retry
system.mem_ctrl.totGap                      161800000                       # Total gap between requests
system.mem_ctrl.readPktSize::0                      0                       # Read request sizes (log2)
system.mem_ctrl.readPktSize::1                      0                       # Read request sizes (log2)
system.mem_ctrl.readPktSize::2                      0                       # Read request sizes (log2)
system.mem_ctrl.readPktSize::3                      0                       # Read request sizes (log2)
system.mem_ctrl.readPktSize::4                      0                       # Read request sizes (log2)
system.mem_ctrl.readPktSize::5                      0                       # Read request sizes (log2)
system.mem_ctrl.readPktSize::6                   2710                       # Read request sizes (log2)
system.mem_ctrl.writePktSize::0                     0                       # Write request sizes (log2)
system.mem_ctrl.writePktSize::1                     0                       # Write request sizes (log2)
system.mem_ctrl.writePktSize::2                     0                       # Write request sizes (log2)
system.mem_ctrl.writePktSize::3                     0                       # Write request sizes (log2)
system.mem_ctrl.writePktSize::4                     0                       # Write request sizes (log2)
system.mem_ctrl.writePktSize::5                     0                       # Write request sizes (log2)
system.mem_ctrl.writePktSize::6                  2694                       # Write request sizes (log2)
system.mem_ctrl.rdQLenPdf::0                     1840                       # What read queue length does an incoming req see
system.mem_ctrl.rdQLenPdf::1                        0                       # What read queue length does an incoming req see
system.mem_ctrl.rdQLenPdf::2                        0                       # What read queue length does an incoming req see
system.mem_ctrl.rdQLenPdf::3                        0                       # What read queue length does an incoming req see
system.mem_ctrl.rdQLenPdf::4                        0                       # What read queue length does an incoming req see
system.mem_ctrl.rdQLenPdf::5                        0                       # What read queue length does an incoming req see
system.mem_ctrl.rdQLenPdf::6                        0                       # What read queue length does an incoming req see
system.mem_ctrl.rdQLenPdf::7                        0                       # What read queue length does an incoming req see
system.mem_ctrl.rdQLenPdf::8                        0                       # What read queue length does an incoming req see
system.mem_ctrl.rdQLenPdf::9                        0                       # What read queue length does an incoming req see
system.mem_ctrl.rdQLenPdf::10                       0                       # What read queue length does an incoming req see
system.mem_ctrl.rdQLenPdf::11                       0                       # What read queue length does an incoming req see
system.mem_ctrl.rdQLenPdf::12                       0                       # What read queue length does an incoming req see
system.mem_ctrl.rdQLenPdf::13                       0                       # What read queue length does an incoming req see
system.mem_ctrl.rdQLenPdf::14                       0                       # What read queue length does an incoming req see
system.mem_ctrl.rdQLenPdf::15                       0                       # What read queue length does an incoming req see
system.mem_ctrl.rdQLenPdf::16                       0                       # What read queue length does an incoming req see
system.mem_ctrl.rdQLenPdf::17                       0                       # What read queue length does an incoming req see
system.mem_ctrl.rdQLenPdf::18                       0                       # What read queue length does an incoming req see
system.mem_ctrl.rdQLenPdf::19                       0                       # What read queue length does an incoming req see
system.mem_ctrl.rdQLenPdf::20                       0                       # What read queue length does an incoming req see
system.mem_ctrl.rdQLenPdf::21                       0                       # What read queue length does an incoming req see
system.mem_ctrl.rdQLenPdf::22                       0                       # What read queue length does an incoming req see
system.mem_ctrl.rdQLenPdf::23                       0                       # What read queue length does an incoming req see
system.mem_ctrl.rdQLenPdf::24                       0                       # What read queue length does an incoming req see
system.mem_ctrl.rdQLenPdf::25                       0                       # What read queue length does an incoming req see
system.mem_ctrl.rdQLenPdf::26                       0                       # What read queue length does an incoming req see
system.mem_ctrl.rdQLenPdf::27                       0                       # What read queue length does an incoming req see
system.mem_ctrl.rdQLenPdf::28                       0                       # What read queue length does an incoming req see
system.mem_ctrl.rdQLenPdf::29                       0                       # What read queue length does an incoming req see
system.mem_ctrl.rdQLenPdf::30                       0                       # What read queue length does an incoming req see
system.mem_ctrl.rdQLenPdf::31                       0                       # What read queue length does an incoming req see
system.mem_ctrl.wrQLenPdf::0                        1                       # What write queue length does an incoming req see
system.mem_ctrl.wrQLenPdf::1                        1                       # What write queue length does an incoming req see
system.mem_ctrl.wrQLenPdf::2                        1                       # What write queue length does an incoming req see
system.mem_ctrl.wrQLenPdf::3                        1                       # What write queue length does an incoming req see
system.mem_ctrl.wrQLenPdf::4                        1                       # What write queue length does an incoming req see
system.mem_ctrl.wrQLenPdf::5                        1                       # What write queue length does an incoming req see
system.mem_ctrl.wrQLenPdf::6                        1                       # What write queue length does an incoming req see
system.mem_ctrl.wrQLenPdf::7                        1                       # What write queue length does an incoming req see
system.mem_ctrl.wrQLenPdf::8                        1                       # What write queue length does an incoming req see
system.mem_ctrl.wrQLenPdf::9                        1                       # What write queue length does an incoming req see
system.mem_ctrl.wrQLenPdf::10                       1                       # What write queue length does an incoming req see
system.mem_ctrl.wrQLenPdf::11                       1                       # What write queue length does an incoming req see
system.mem_ctrl.wrQLenPdf::12                       1                       # What write queue length does an incoming req see
system.mem_ctrl.wrQLenPdf::13                       1                       # What write queue length does an incoming req see
system.mem_ctrl.wrQLenPdf::14                       1                       # What write queue length does an incoming req see
system.mem_ctrl.wrQLenPdf::15                       9                       # What write queue length does an incoming req see
system.mem_ctrl.wrQLenPdf::16                       9                       # What write queue length does an incoming req see
system.mem_ctrl.wrQLenPdf::17                     113                       # What write queue length does an incoming req see
system.mem_ctrl.wrQLenPdf::18                     134                       # What write queue length does an incoming req see
system.mem_ctrl.wrQLenPdf::19                     131                       # What write queue length does an incoming req see
system.mem_ctrl.wrQLenPdf::20                     132                       # What write queue length does an incoming req see
system.mem_ctrl.wrQLenPdf::21                     132                       # What write queue length does an incoming req see
system.mem_ctrl.wrQLenPdf::22                     136                       # What write queue length does an incoming req see
system.mem_ctrl.wrQLenPdf::23                     143                       # What write queue length does an incoming req see
system.mem_ctrl.wrQLenPdf::24                     129                       # What write queue length does an incoming req see
system.mem_ctrl.wrQLenPdf::25                     129                       # What write queue length does an incoming req see
system.mem_ctrl.wrQLenPdf::26                     129                       # What write queue length does an incoming req see
system.mem_ctrl.wrQLenPdf::27                     129                       # What write queue length does an incoming req see
system.mem_ctrl.wrQLenPdf::28                     129                       # What write queue length does an incoming req see
system.mem_ctrl.wrQLenPdf::29                     129                       # What write queue length does an incoming req see
system.mem_ctrl.wrQLenPdf::30                     129                       # What write queue length does an incoming req see
system.mem_ctrl.wrQLenPdf::31                     129                       # What write queue length does an incoming req see
system.mem_ctrl.wrQLenPdf::32                     129                       # What write queue length does an incoming req see
system.mem_ctrl.wrQLenPdf::33                       2                       # What write queue length does an incoming req see
system.mem_ctrl.wrQLenPdf::34                       0                       # What write queue length does an incoming req see
system.mem_ctrl.wrQLenPdf::35                       0                       # What write queue length does an incoming req see
system.mem_ctrl.wrQLenPdf::36                       0                       # What write queue length does an incoming req see
system.mem_ctrl.wrQLenPdf::37                       0                       # What write queue length does an incoming req see
system.mem_ctrl.wrQLenPdf::38                       0                       # What write queue length does an incoming req see
system.mem_ctrl.wrQLenPdf::39                       0                       # What write queue length does an incoming req see
system.mem_ctrl.wrQLenPdf::40                       0                       # What write queue length does an incoming req see
system.mem_ctrl.wrQLenPdf::41                       0                       # What write queue length does an incoming req see
system.mem_ctrl.wrQLenPdf::42                       0                       # What write queue length does an incoming req see
system.mem_ctrl.wrQLenPdf::43                       0                       # What write queue length does an incoming req see
system.mem_ctrl.wrQLenPdf::44                       0                       # What write queue length does an incoming req see
system.mem_ctrl.wrQLenPdf::45                       0                       # What write queue length does an incoming req see
system.mem_ctrl.wrQLenPdf::46                       0                       # What write queue length does an incoming req see
system.mem_ctrl.wrQLenPdf::47                       0                       # What write queue length does an incoming req see
system.mem_ctrl.wrQLenPdf::48                       0                       # What write queue length does an incoming req see
system.mem_ctrl.wrQLenPdf::49                       0                       # What write queue length does an incoming req see
system.mem_ctrl.wrQLenPdf::50                       0                       # What write queue length does an incoming req see
system.mem_ctrl.wrQLenPdf::51                       0                       # What write queue length does an incoming req see
system.mem_ctrl.wrQLenPdf::52                       0                       # What write queue length does an incoming req see
system.mem_ctrl.wrQLenPdf::53                       0                       # What write queue length does an incoming req see
system.mem_ctrl.wrQLenPdf::54                       0                       # What write queue length does an incoming req see
system.mem_ctrl.wrQLenPdf::55                       0                       # What write queue length does an incoming req see
system.mem_ctrl.wrQLenPdf::56                       0                       # What write queue length does an incoming req see
system.mem_ctrl.wrQLenPdf::57                       0                       # What write queue length does an incoming req see
system.mem_ctrl.wrQLenPdf::58                       0                       # What write queue length does an incoming req see
system.mem_ctrl.wrQLenPdf::59                       0                       # What write queue length does an incoming req see
system.mem_ctrl.wrQLenPdf::60                       0                       # What write queue length does an incoming req see
system.mem_ctrl.wrQLenPdf::61                       0                       # What write queue length does an incoming req see
system.mem_ctrl.wrQLenPdf::62                       0                       # What write queue length does an incoming req see
system.mem_ctrl.wrQLenPdf::63                       0                       # What write queue length does an incoming req see
system.mem_ctrl.bytesPerActivate::samples          589                       # Bytes accessed per row activation
system.mem_ctrl.bytesPerActivate::mean     419.531409                       # Bytes accessed per row activation
system.mem_ctrl.bytesPerActivate::gmean    281.884871                       # Bytes accessed per row activation
system.mem_ctrl.bytesPerActivate::stdev    346.097266                       # Bytes accessed per row activation
system.mem_ctrl.bytesPerActivate::0-127            93     15.79%     15.79% # Bytes accessed per row activation
system.mem_ctrl.bytesPerActivate::128-255          155     26.32%     42.11% # Bytes accessed per row activation
system.mem_ctrl.bytesPerActivate::256-383           83     14.09%     56.20% # Bytes accessed per row activation
system.mem_ctrl.bytesPerActivate::384-511           66     11.21%     67.40% # Bytes accessed per row activation
system.mem_ctrl.bytesPerActivate::512-639           31      5.26%     72.67% # Bytes accessed per row activation
system.mem_ctrl.bytesPerActivate::640-767           23      3.90%     76.57% # Bytes accessed per row activation
system.mem_ctrl.bytesPerActivate::768-895           19      3.23%     79.80% # Bytes accessed per row activation
system.mem_ctrl.bytesPerActivate::896-1023           18      3.06%     82.85% # Bytes accessed per row activation
system.mem_ctrl.bytesPerActivate::1024-1151          101     17.15%    100.00% # Bytes accessed per row activation
system.mem_ctrl.bytesPerActivate::total           589                       # Bytes accessed per row activation
system.mem_ctrl.rdPerTurnAround::samples          129                       # Reads before turning the bus around for writes
system.mem_ctrl.rdPerTurnAround::mean       14.217054                       # Reads before turning the bus around for writes
system.mem_ctrl.rdPerTurnAround::gmean      13.918745                       # Reads before turning the bus around for writes
system.mem_ctrl.rdPerTurnAround::stdev       3.504375                       # Reads before turning the bus around for writes
system.mem_ctrl.rdPerTurnAround::6-7                2      1.55%      1.55% # Reads before turning the bus around for writes
system.mem_ctrl.rdPerTurnAround::8-9                1      0.78%      2.33% # Reads before turning the bus around for writes
system.mem_ctrl.rdPerTurnAround::10-11             10      7.75%     10.08% # Reads before turning the bus around for writes
system.mem_ctrl.rdPerTurnAround::12-13             36     27.91%     37.98% # Reads before turning the bus around for writes
system.mem_ctrl.rdPerTurnAround::14-15             52     40.31%     78.29% # Reads before turning the bus around for writes
system.mem_ctrl.rdPerTurnAround::16-17             20     15.50%     93.80% # Reads before turning the bus around for writes
system.mem_ctrl.rdPerTurnAround::18-19              4      3.10%     96.90% # Reads before turning the bus around for writes
system.mem_ctrl.rdPerTurnAround::20-21              3      2.33%     99.22% # Reads before turning the bus around for writes
system.mem_ctrl.rdPerTurnAround::44-45              1      0.78%    100.00% # Reads before turning the bus around for writes
system.mem_ctrl.rdPerTurnAround::total            129                       # Reads before turning the bus around for writes
system.mem_ctrl.wrPerTurnAround::samples          129                       # Writes before turning the bus around for reads
system.mem_ctrl.wrPerTurnAround::mean       16.240310                       # Writes before turning the bus around for reads
system.mem_ctrl.wrPerTurnAround::gmean      16.217935                       # Writes before turning the bus around for reads
system.mem_ctrl.wrPerTurnAround::stdev       0.916645                       # Writes before turning the bus around for reads
system.mem_ctrl.wrPerTurnAround::16               119     92.25%     92.25% # Writes before turning the bus around for reads
system.mem_ctrl.wrPerTurnAround::17                 2      1.55%     93.80% # Writes before turning the bus around for reads
system.mem_ctrl.wrPerTurnAround::19                 5      3.88%     97.67% # Writes before turning the bus around for reads
system.mem_ctrl.wrPerTurnAround::20                 2      1.55%     99.22% # Writes before turning the bus around for reads
system.mem_ctrl.wrPerTurnAround::22                 1      0.78%    100.00% # Writes before turning the bus around for reads
system.mem_ctrl.wrPerTurnAround::total            129                       # Writes before turning the bus around for reads
system.mem_ctrl.totQLat                      32740000                       # Total ticks spent queuing
system.mem_ctrl.totMemAccLat                 67240000                       # Total ticks spent from burst creation until serviced by the DRAM
system.mem_ctrl.totBusLat                     9200000                       # Total ticks spent in databus transfers
system.mem_ctrl.avgQLat                      17793.48                       # Average queueing delay per DRAM burst
system.mem_ctrl.avgBusLat                     5000.00                       # Average bus latency per DRAM burst
system.mem_ctrl.avgMemAccLat                 36543.48                       # Average memory access latency per DRAM burst
system.mem_ctrl.avgRdBW                        727.78                       # Average DRAM read bandwidth in MiByte/s
system.mem_ctrl.avgWrBW                        828.64                       # Average achieved write bandwidth in MiByte/s
system.mem_ctrl.avgRdBWSys                    1071.89                       # Average system read bandwidth in MiByte/s
system.mem_ctrl.avgWrBWSys                    1065.56                       # Average system write bandwidth in MiByte/s
system.mem_ctrl.peakBW                       12800.00                       # Theoretical peak bandwidth in MiByte/s
system.mem_ctrl.busUtil                         12.16                       # Data bus utilization in percentage
system.mem_ctrl.busUtilRead                      5.69                       # Data bus utilization in percentage for reads
system.mem_ctrl.busUtilWrite                     6.47                       # Data bus utilization in percentage for writes
system.mem_ctrl.avgRdQLen                        1.00                       # Average read queue length when enqueuing
system.mem_ctrl.avgWrQLen                       25.63                       # Average write queue length when enqueuing
system.mem_ctrl.readRowHits                      1406                       # Number of row buffer hits during reads
system.mem_ctrl.writeRowHits                     1929                       # Number of row buffer hits during writes
system.mem_ctrl.readRowHitRate                  76.41                       # Row buffer hit rate for reads
system.mem_ctrl.writeRowHitRate                 91.12                       # Row buffer hit rate for writes
system.mem_ctrl.avgGap                       29940.78                       # Average gap between requests
system.mem_ctrl.pageHitRate                     84.28                       # Row buffer hit rate, read and write combined
system.mem_ctrl_0.actEnergy                   2777460                       # Energy for activate commands per rank (pJ)
system.mem_ctrl_0.preEnergy                   1453485                       # Energy for precharge commands per rank (pJ)
system.mem_ctrl_0.readEnergy                  8353800                       # Energy for read commands per rank (pJ)
system.mem_ctrl_0.writeEnergy                 6566760                       # Energy for write commands per rank (pJ)
system.mem_ctrl_0.refreshEnergy          12292800.000000                       # Energy for refresh commands per rank (pJ)
system.mem_ctrl_0.actBackEnergy              26770050                       # Energy for active background per rank (pJ)
system.mem_ctrl_0.preBackEnergy                252480                       # Energy for precharge background per rank (pJ)
system.mem_ctrl_0.actPowerDownEnergy         46380330                       # Energy for active power-down per rank (pJ)
system.mem_ctrl_0.prePowerDownEnergy           281760                       # Energy for precharge power-down per rank (pJ)
system.mem_ctrl_0.selfRefreshEnergy                 0                       # Energy for self refresh per rank (pJ)
system.mem_ctrl_0.totalEnergy               105128925                       # Total energy per rank (pJ)
system.mem_ctrl_0.averagePower             649.711001                       # Core power per rank (mW)
system.mem_ctrl_0.totalIdleTime             102271000                       # Total Idle time Per DRAM Rank
system.mem_ctrl_0.memoryStateTime::IDLE         79000                       # Time in different power states
system.mem_ctrl_0.memoryStateTime::REF        5200000                       # Time in different power states
system.mem_ctrl_0.memoryStateTime::SREF             0                       # Time in different power states
system.mem_ctrl_0.memoryStateTime::PRE_PDN       731250                       # Time in different power states
system.mem_ctrl_0.memoryStateTime::ACT       54092750                       # Time in different power states
system.mem_ctrl_0.memoryStateTime::ACT_PDN    101705000                       # Time in different power states
system.mem_ctrl_1.actEnergy                   1506540                       # Energy for activate commands per rank (pJ)
system.mem_ctrl_1.preEnergy                    781770                       # Energy for precharge commands per rank (pJ)
system.mem_ctrl_1.readEnergy                  4783800                       # Energy for read commands per rank (pJ)
system.mem_ctrl_1.writeEnergy                 4369140                       # Energy for write commands per rank (pJ)
system.mem_ctrl_1.refreshEnergy          12292800.000000                       # Energy for refresh commands per rank (pJ)
system.mem_ctrl_1.actBackEnergy              22198080                       # Energy for active background per rank (pJ)
system.mem_ctrl_1.preBackEnergy                497280                       # Energy for precharge background per rank (pJ)
system.mem_ctrl_1.actPowerDownEnergy         48742980                       # Energy for active power-down per rank (pJ)
system.mem_ctrl_1.prePowerDownEnergy          1897440                       # Energy for precharge power-down per rank (pJ)
system.mem_ctrl_1.selfRefreshEnergy                 0                       # Energy for self refresh per rank (pJ)
system.mem_ctrl_1.totalEnergy                97069830                       # Total energy per rank (pJ)
system.mem_ctrl_1.averagePower             599.904702                       # Core power per rank (mW)
system.mem_ctrl_1.totalIdleTime             111807750                       # Total Idle time Per DRAM Rank
system.mem_ctrl_1.memoryStateTime::IDLE        675000                       # Time in different power states
system.mem_ctrl_1.memoryStateTime::REF        5200000                       # Time in different power states
system.mem_ctrl_1.memoryStateTime::SREF             0                       # Time in different power states
system.mem_ctrl_1.memoryStateTime::PRE_PDN      4936000                       # Time in different power states
system.mem_ctrl_1.memoryStateTime::ACT       44088000                       # Time in different power states
system.mem_ctrl_1.memoryStateTime::ACT_PDN    106909000                       # Time in different power states
system.pwrStateResidencyTicks::UNDEFINED    161808000                       # Cumulative time (in ticks) in various power states
system.cache.pwrStateResidencyTicks::UNDEFINED    161808000                       # Cumulative time (in ticks) in various power states
system.cache.hits                               14479                       # Number of hits
system.cache.misses                              2710                       # Number of misses
system.cache.missLatency::samples                2710                       # Ticks for misses to the cache
system.cache.missLatency::mean           53364.944649                       # Ticks for misses to the cache
system.cache.missLatency::gmean          45322.427047                       # Ticks for misses to the cache
system.cache.missLatency::stdev          35916.128407                       # Ticks for misses to the cache
system.cache.missLatency::0-32767                 870     32.10%     32.10% # Ticks for misses to the cache
system.cache.missLatency::32768-65535            1345     49.63%     81.73% # Ticks for misses to the cache
system.cache.missLatency::65536-98303             356     13.14%     94.87% # Ticks for misses to the cache
system.cache.missLatency::98304-131071             29      1.07%     95.94% # Ticks for misses to the cache
system.cache.missLatency::131072-163839            78      2.88%     98.82% # Ticks for misses to the cache
system.cache.missLatency::163840-196607            13      0.48%     99.30% # Ticks for misses to the cache
system.cache.missLatency::196608-229375             1      0.04%     99.34% # Ticks for misses to the cache
system.cache.missLatency::229376-262143             2      0.07%     99.41% # Ticks for misses to the cache
system.cache.missLatency::262144-294911             1      0.04%     99.45% # Ticks for misses to the cache
system.cache.missLatency::294912-327679             9      0.33%     99.78% # Ticks for misses to the cache
system.cache.missLatency::327680-360447             5      0.18%     99.96% # Ticks for misses to the cache
system.cache.missLatency::360448-393215             0      0.00%     99.96% # Ticks for misses to the cache
system.cache.missLatency::393216-425983             0      0.00%     99.96% # Ticks for misses to the cache
system.cache.missLatency::425984-458751             0      0.00%     99.96% # Ticks for misses to the cache
system.cache.missLatency::458752-491519             0      0.00%     99.96% # Ticks for misses to the cache
system.cache.missLatency::491520-524287             1      0.04%    100.00% # Ticks for misses to the cache
system.cache.missLatency::total                  2710                       # Ticks for misses to the cache
system.cache.hitRatio                        0.842341                       # The ratio of hits to the total accesses to the cache
system.cpu.dtb.fetch_hits                           0                       # ITB hits
system.cpu.dtb.fetch_misses                         0                       # ITB misses
system.cpu.dtb.fetch_acv                            0                       # ITB acv
system.cpu.dtb.fetch_accesses                       0                       # ITB accesses
system.cpu.dtb.read_hits                         2627                       # DTB read hits
system.cpu.dtb.read_misses                         10                       # DTB read misses
system.cpu.dtb.read_acv                             0                       # DTB read access violations
system.cpu.dtb.read_accesses                     2637                       # DTB read accesses
system.cpu.dtb.write_hits                        1882                       # DTB write hits
system.cpu.dtb.write_misses                         2                       # DTB write misses
system.cpu.dtb.write_acv                            0                       # DTB write access violations
system.cpu.dtb.write_accesses                    1884                       # DTB write accesses
system.cpu.dtb.data_hits                         4509                       # DTB hits
system.cpu.dtb.data_misses                         12                       # DTB misses
system.cpu.dtb.data_acv                             0                       # DTB access violations
system.cpu.dtb.data_accesses                     4521                       # DTB accesses
system.cpu.itb.fetch_hits                       12681                       # ITB hits
system.cpu.itb.fetch_misses                        24                       # ITB misses
system.cpu.itb.fetch_acv                            0                       # ITB acv
system.cpu.itb.fetch_accesses                   12705                       # ITB accesses
system.cpu.itb.read_hits                            0                       # DTB read hits
system.cpu.itb.read_misses                          0                       # DTB read misses
system.cpu.itb.read_acv                             0                       # DTB read access violations
system.cpu.itb.read_accesses                        0                       # DTB read accesses
system.cpu.itb.write_hits                           0                       # DTB write hits
system.cpu.itb.write_misses                         0                       # DTB write misses
system.cpu.itb.write_acv                            0                       # DTB write access violations
system.cpu.itb.write_accesses                       0                       # DTB write accesses
system.cpu.itb.data_hits                            0                       # DTB hits
system.cpu.itb.data_misses                          0                       # DTB misses
system.cpu.itb.data_acv                             0                       # DTB access violations
system.cpu.itb.data_accesses                        0                       # DTB accesses
system.cpu.workload.numSyscalls                    11                       # Number of system calls
system.cpu.pwrStateResidencyTicks::ON       161808000                       # Cumulative time (in ticks) in various power states
system.cpu.numCycles                           161808                       # number of cpu cycles simulated
system.cpu.numWorkItemsStarted                      0                       # number of work items this cpu started
system.cpu.numWorkItemsCompleted                    0                       # number of work items this cpu completed
system.cpu.committedInsts                       12668                       # Number of instructions committed
system.cpu.committedOps                         12668                       # Number of ops (including micro ops) committed
system.cpu.num_int_alu_accesses                 12547                       # Number of integer alu accesses
system.cpu.num_fp_alu_accesses                     70                       # Number of float alu accesses
system.cpu.num_vec_alu_accesses                     0                       # Number of vector alu accesses
system.cpu.num_func_calls                         405                       # number of times a function call or return occured
system.cpu.num_conditional_control_insts         1332                       # number of instructions that are conditional controls
system.cpu.num_int_insts                        12547                       # number of integer instructions
system.cpu.num_fp_insts                            70                       # number of float instructions
system.cpu.num_vec_insts                            0                       # number of vector instructions
system.cpu.num_int_register_reads               17261                       # number of times the integer registers were read
system.cpu.num_int_register_writes               9102                       # number of times the integer registers were written
system.cpu.num_fp_register_reads                   68                       # number of times the floating registers were read
system.cpu.num_fp_register_writes                   2                       # number of times the floating registers were written
system.cpu.num_vec_register_reads                   0                       # number of times the vector registers were read
system.cpu.num_vec_register_writes                  0                       # number of times the vector registers were written
system.cpu.num_mem_refs                          4521                       # number of memory refs
system.cpu.num_load_insts                        2637                       # Number of load instructions
system.cpu.num_store_insts                       1884                       # Number of store instructions
system.cpu.num_idle_cycles                          0                       # Number of idle cycles
system.cpu.num_busy_cycles                     161808                       # Number of busy cycles
system.cpu.not_idle_fraction                        1                       # Percentage of non-idle cycles
system.cpu.idle_fraction                            0                       # Percentage of idle cycles
system.cpu.Branches                              1857                       # Number of branches fetched
system.cpu.op_class::No_OpClass                    22      0.17%      0.17% # Class of executed instruction
system.cpu.op_class::IntAlu                      8096     63.85%     64.02% # Class of executed instruction
system.cpu.op_class::IntMult                       39      0.31%     64.33% # Class of executed instruction
system.cpu.op_class::IntDiv                         0      0.00%     64.33% # Class of executed instruction
system.cpu.op_class::FloatAdd                       2      0.02%     64.35% # Class of executed instruction
system.cpu.op_class::FloatCmp                       0      0.00%     64.35% # Class of executed instruction
system.cpu.op_class::FloatCvt                       0      0.00%     64.35% # Class of executed instruction
system.cpu.op_class::FloatMult                      0      0.00%     64.35% # Class of executed instruction
system.cpu.op_class::FloatMultAcc                   0      0.00%     64.35% # Class of executed instruction
system.cpu.op_class::FloatDiv                       0      0.00%     64.35% # Class of executed instruction
system.cpu.op_class::FloatMisc                      0      0.00%     64.35% # Class of executed instruction
system.cpu.op_class::FloatSqrt                      0      0.00%     64.35% # Class of executed instruction
system.cpu.op_class::SimdAdd                        0      0.00%     64.35% # Class of executed instruction
system.cpu.op_class::SimdAddAcc                     0      0.00%     64.35% # Class of executed instruction
system.cpu.op_class::SimdAlu                        0      0.00%     64.35% # Class of executed instruction
system.cpu.op_class::SimdCmp                        0      0.00%     64.35% # Class of executed instruction
system.cpu.op_class::SimdCvt                        0      0.00%     64.35% # Class of executed instruction
system.cpu.op_class::SimdMisc                       0      0.00%     64.35% # Class of executed instruction
system.cpu.op_class::SimdMult                       0      0.00%     64.35% # Class of executed instruction
system.cpu.op_class::SimdMultAcc                    0      0.00%     64.35% # Class of executed instruction
system.cpu.op_class::SimdShift                      0      0.00%     64.35% # Class of executed instruction
system.cpu.op_class::SimdShiftAcc                   0      0.00%     64.35% # Class of executed instruction
system.cpu.op_class::SimdSqrt                       0      0.00%     64.35% # Class of executed instruction
system.cpu.op_class::SimdFloatAdd                   0      0.00%     64.35% # Class of executed instruction
system.cpu.op_class::SimdFloatAlu                   0      0.00%     64.35% # Class of executed instruction
system.cpu.op_class::SimdFloatCmp                   0      0.00%     64.35% # Class of executed instruction
system.cpu.op_class::SimdFloatCvt                   0      0.00%     64.35% # Class of executed instruction
system.cpu.op_class::SimdFloatDiv                   0      0.00%     64.35% # Class of executed instruction
system.cpu.op_class::SimdFloatMisc                  0      0.00%     64.35% # Class of executed instruction
system.cpu.op_class::SimdFloatMult                  0      0.00%     64.35% # Class of executed instruction
system.cpu.op_class::SimdFloatMultAcc               0      0.00%     64.35% # Class of executed instruction
system.cpu.op_class::SimdFloatSqrt                  0      0.00%     64.35% # Class of executed instruction
system.cpu.op_class::MemRead                     2636     20.79%     85.13% # Class of executed instruction
system.cpu.op_class::MemWrite                    1817     14.33%     99.46% # Class of executed instruction
system.cpu.op_class::FloatMemRead                   1      0.01%     99.47% # Class of executed instruction
system.cpu.op_class::FloatMemWrite                 67      0.53%    100.00% # Class of executed instruction
system.cpu.op_class::IprAccess                      0      0.00%    100.00% # Class of executed instruction
system.cpu.op_class::InstPrefetch                   0      0.00%    100.00% # Class of executed instruction
system.cpu.op_class::total                      12680                       # Class of executed instruction
system.membus.snoop_filter.tot_requests             0                       # Total number of requests made to the snoop filter.
system.membus.snoop_filter.hit_single_requests            0                       # Number of requests hitting in the snoop filter with a single holder of the requested data.
system.membus.snoop_filter.hit_multi_requests            0                       # Number of requests hitting in the snoop filter with multiple (>1) holders of the requested data.
system.membus.snoop_filter.tot_snoops               0                       # Total number of snoops made to the snoop filter.
system.membus.snoop_filter.hit_single_snoops            0                       # Number of snoops hitting in the snoop filter with a single holder of the requested data.
system.membus.snoop_filter.hit_multi_snoops            0                       # Number of snoops hitting in the snoop filter with multiple (>1) holders of the requested data.
system.membus.pwrStateResidencyTicks::UNDEFINED    161808000                       # Cumulative time (in ticks) in various power states
system.membus.trans_dist::ReadReq                2710                       # Transaction distribution
system.membus.trans_dist::ReadResp               2710                       # Transaction distribution
system.membus.trans_dist::WritebackDirty         2694                       # Transaction distribution
system.membus.pkt_count_system.cache.mem_side::system.mem_ctrl.port         8114                       # Packet count per connected master and slave (bytes)
system.membus.pkt_count::total                   8114                       # Packet count per connected master and slave (bytes)
system.membus.pkt_size_system.cache.mem_side::system.mem_ctrl.port       345856                       # Cumulative packet size per connected master and slave (bytes)
system.membus.pkt_size::total                  345856                       # Cumulative packet size per connected master and slave (bytes)
system.membus.snoops                                0                       # Total snoops (count)
system.membus.snoopTraffic                          0                       # Total snoop traffic (bytes)
system.membus.snoop_fanout::samples              2710                       # Request fanout histogram
system.membus.snoop_fanout::mean                    0                       # Request fanout histogram
system.membus.snoop_fanout::stdev                   0                       # Request fanout histogram
system.membus.snoop_fanout::underflows              0      0.00%      0.00% # Request fanout histogram
system.membus.snoop_fanout::0                    2710    100.00%    100.00% # Request fanout histogram
system.membus.snoop_fanout::overflows               0      0.00%    100.00% # Request fanout histogram
system.membus.snoop_fanout::min_value               0                       # Request fanout histogram
system.membus.snoop_fanout::max_value               0                       # Request fanout histogram
system.membus.snoop_fanout::total                2710                       # Request fanout histogram
system.membus.reqLayer0.occupancy            16180000                       # Layer occupancy (ticks)
system.membus.reqLayer0.utilization              10.0                       # Layer utilization (%)
system.membus.respLayer0.occupancy           14144000                       # Layer occupancy (ticks)
system.membus.respLayer0.utilization              8.7                       # Layer utilization (%)

---------- End Simulation Statistics   ----------
