
---------- Begin Simulation Statistics ----------
sim_seconds                                  0.000346                       # Number of seconds simulated
sim_ticks                                   345526000                       # Number of ticks simulated
final_tick                                  345526000                       # Number of ticks from beginning of simulation (restored from checkpoints and never reset)
sim_freq                                 1000000000000                       # Frequency of simulated ticks
host_inst_rate                                 246498                       # Simulator instruction rate (inst/s)
host_op_rate                                   246450                       # Simulator op (including micro ops) rate (op/s)
host_tick_rate                             6720857404                       # Simulator tick rate (ticks/s)
host_mem_usage                                6697108                       # Number of bytes of host memory used
host_seconds                                     0.05                       # Real time elapsed on the host
sim_insts                                       12668                       # Number of instructions simulated
sim_ops                                         12668                       # Number of ops (including micro ops) simulated
system.clk_domain.voltage_domain.voltage            1                       # Voltage in Volts
system.clk_domain.clock                          1000                       # Clock period in ticks
system.mem_ctrl.pwrStateResidencyTicks::UNDEFINED    345526000                       # Cumulative time (in ticks) in various power states
system.mem_ctrl.bytes_read::cpu.inst           361152                       # Number of bytes read from this memory
system.mem_ctrl.bytes_read::cpu.data           278656                       # Number of bytes read from this memory
system.mem_ctrl.bytes_read::total              639808                       # Number of bytes read from this memory
system.mem_ctrl.bytes_inst_read::cpu.inst       361152                       # Number of instructions bytes read from this memory
system.mem_ctrl.bytes_inst_read::total         361152                       # Number of instructions bytes read from this memory
system.mem_ctrl.bytes_written::writebacks       638784                       # Number of bytes written to this memory
system.mem_ctrl.bytes_written::total           638784                       # Number of bytes written to this memory
system.mem_ctrl.num_reads::cpu.inst              5643                       # Number of read requests responded to by this memory
system.mem_ctrl.num_reads::cpu.data              4354                       # Number of read requests responded to by this memory
system.mem_ctrl.num_reads::total                 9997                       # Number of read requests responded to by this memory
system.mem_ctrl.num_writes::writebacks           9981                       # Number of write requests responded to by this memory
system.mem_ctrl.num_writes::total                9981                       # Number of write requests responded to by this memory
system.mem_ctrl.bw_read::cpu.inst          1045223804                       # Total read bandwidth from this memory (bytes/s)
system.mem_ctrl.bw_read::cpu.data           806468978                       # Total read bandwidth from this memory (bytes/s)
system.mem_ctrl.bw_read::total             1851692781                       # Total read bandwidth from this memory (bytes/s)
system.mem_ctrl.bw_inst_read::cpu.inst     1045223804                       # Instruction read bandwidth from this memory (bytes/s)
system.mem_ctrl.bw_inst_read::total        1045223804                       # Instruction read bandwidth from this memory (bytes/s)
system.mem_ctrl.bw_write::writebacks       1848729184                       # Write bandwidth from this memory (bytes/s)
system.mem_ctrl.bw_write::total            1848729184                       # Write bandwidth from this memory (bytes/s)
system.mem_ctrl.bw_total::writebacks       1848729184                       # Total bandwidth to/from this memory (bytes/s)
system.mem_ctrl.bw_total::cpu.inst         1045223804                       # Total bandwidth to/from this memory (bytes/s)
system.mem_ctrl.bw_total::cpu.data          806468978                       # Total bandwidth to/from this memory (bytes/s)
system.mem_ctrl.bw_total::total            3700421965                       # Total bandwidth to/from this memory (bytes/s)
system.mem_ctrl.readReqs                         9997                       # Number of read requests accepted
system.mem_ctrl.writeReqs                        9981                       # Number of write requests accepted
system.mem_ctrl.readBursts                       9997                       # Number of DRAM read bursts, including those serviced by the write queue
system.mem_ctrl.writeBursts                      9981                       # Number of DRAM write bursts, including those merged in the write queue
system.mem_ctrl.bytesReadDRAM                  134912                       # Total number of bytes read from DRAM
system.mem_ctrl.bytesReadWrQ                   504896                       # Total number of bytes read from write queue
system.mem_ctrl.bytesWritten                   138240                       # Total number of bytes written to DRAM
system.mem_ctrl.bytesReadSys                   639808                       # Total read bytes from the system interface side
system.mem_ctrl.bytesWrittenSys                638784                       # Total written bytes from the system interface side
system.mem_ctrl.servicedByWrQ                    7889                       # Number of DRAM read bursts serviced by the write queue
system.mem_ctrl.mergedWrBursts                   7799                       # Number of DRAM write bursts merged with an existing one
system.mem_ctrl.neitherReadNorWriteReqs             0                       # Number of requests that are neither read nor write
system.mem_ctrl.perBankRdBursts::0                 76                       # Per bank write bursts
system.mem_ctrl.perBankRdBursts::1                  0                       # Per bank write bursts
system.mem_ctrl.perBankRdBursts::2                270                       # Per bank write bursts
system.mem_ctrl.perBankRdBursts::3                228                       # Per bank write bursts
system.mem_ctrl.perBankRdBursts::4                105                       # Per bank write bursts
system.mem_ctrl.perBankRdBursts::5                102                       # Per bank write bursts
system.mem_ctrl.perBankRdBursts::6                379                       # Per bank write bursts
system.mem_ctrl.perBankRdBursts::7                 72                       # Per bank write bursts
system.mem_ctrl.perBankRdBursts::8                 57                       # Per bank write bursts
system.mem_ctrl.perBankRdBursts::9                449                       # Per bank write bursts
system.mem_ctrl.perBankRdBursts::10                26                       # Per bank write bursts
system.mem_ctrl.perBankRdBursts::11                52                       # Per bank write bursts
system.mem_ctrl.perBankRdBursts::12                16                       # Per bank write bursts
system.mem_ctrl.perBankRdBursts::13                53                       # Per bank write bursts
system.mem_ctrl.perBankRdBursts::14               110                       # Per bank write bursts
system.mem_ctrl.perBankRdBursts::15               113                       # Per bank write bursts
system.mem_ctrl.perBankWrBursts::0                 71                       # Per bank write bursts
system.mem_ctrl.perBankWrBursts::1                  0                       # Per bank write bursts
system.mem_ctrl.perBankWrBursts::2                263                       # Per bank write bursts
system.mem_ctrl.perBankWrBursts::3                228                       # Per bank write bursts
system.mem_ctrl.perBankWrBursts::4                106                       # Per bank write bursts
system.mem_ctrl.perBankWrBursts::5                109                       # Per bank write bursts
system.mem_ctrl.perBankWrBursts::6                385                       # Per bank write bursts
system.mem_ctrl.perBankWrBursts::7                 76                       # Per bank write bursts
system.mem_ctrl.perBankWrBursts::8                 62                       # Per bank write bursts
system.mem_ctrl.perBankWrBursts::9                476                       # Per bank write bursts
system.mem_ctrl.perBankWrBursts::10                26                       # Per bank write bursts
system.mem_ctrl.perBankWrBursts::11                50                       # Per bank write bursts
system.mem_ctrl.perBankWrBursts::12                18                       # Per bank write bursts
system.mem_ctrl.perBankWrBursts::13                55                       # Per bank write bursts
system.mem_ctrl.perBankWrBursts::14               119                       # Per bank write bursts
system.mem_ctrl.perBankWrBursts::15               116                       # Per bank write bursts
system.mem_ctrl.numRdRetry                          0                       # Number of times read queue was full causing retry
system.mem_ctrl.numWrRetry                          0                       # Number of times write queue was full causing retry
system.mem_ctrl.totGap                      345522000                       # Total gap between requests
system.mem_ctrl.readPktSize::0                      0                       # Read request sizes (log2)
system.mem_ctrl.readPktSize::1                      0                       # Read request sizes (log2)
system.mem_ctrl.readPktSize::2                      0                       # Read request sizes (log2)
system.mem_ctrl.readPktSize::3                      0                       # Read request sizes (log2)
system.mem_ctrl.readPktSize::4                      0                       # Read request sizes (log2)
system.mem_ctrl.readPktSize::5                      0                       # Read request sizes (log2)
system.mem_ctrl.readPktSize::6                   9997                       # Read request sizes (log2)
system.mem_ctrl.writePktSize::0                     0                       # Write request sizes (log2)
system.mem_ctrl.writePktSize::1                     0                       # Write request sizes (log2)
system.mem_ctrl.writePktSize::2                     0                       # Write request sizes (log2)
system.mem_ctrl.writePktSize::3                     0                       # Write request sizes (log2)
system.mem_ctrl.writePktSize::4                     0                       # Write request sizes (log2)
system.mem_ctrl.writePktSize::5                     0                       # Write request sizes (log2)
system.mem_ctrl.writePktSize::6                  9981                       # Write request sizes (log2)
system.mem_ctrl.rdQLenPdf::0                     2108                       # What read queue length does an incoming req see
system.mem_ctrl.rdQLenPdf::1                        0                       # What read queue length does an incoming req see
system.mem_ctrl.rdQLenPdf::2                        0                       # What read queue length does an incoming req see
system.mem_ctrl.rdQLenPdf::3                        0                       # What read queue length does an incoming req see
system.mem_ctrl.rdQLenPdf::4                        0                       # What read queue length does an incoming req see
system.mem_ctrl.rdQLenPdf::5                        0                       # What read queue length does an incoming req see
system.mem_ctrl.rdQLenPdf::6                        0                       # What read queue length does an incoming req see
system.mem_ctrl.rdQLenPdf::7                        0                       # What read queue length does an incoming req see
system.mem_ctrl.rdQLenPdf::8                        0                       # What read queue length does an incoming req see
system.mem_ctrl.rdQLenPdf::9                        0                       # What read queue length does an incoming req see
system.mem_ctrl.rdQLenPdf::10                       0                       # What read queue length does an incoming req see
system.mem_ctrl.rdQLenPdf::11                       0                       # What read queue length does an incoming req see
system.mem_ctrl.rdQLenPdf::12                       0                       # What read queue length does an incoming req see
system.mem_ctrl.rdQLenPdf::13                       0                       # What read queue length does an incoming req see
system.mem_ctrl.rdQLenPdf::14                       0                       # What read queue length does an incoming req see
system.mem_ctrl.rdQLenPdf::15                       0                       # What read queue length does an incoming req see
system.mem_ctrl.rdQLenPdf::16                       0                       # What read queue length does an incoming req see
system.mem_ctrl.rdQLenPdf::17                       0                       # What read queue length does an incoming req see
system.mem_ctrl.rdQLenPdf::18                       0                       # What read queue length does an incoming req see
system.mem_ctrl.rdQLenPdf::19                       0                       # What read queue length does an incoming req see
system.mem_ctrl.rdQLenPdf::20                       0                       # What read queue length does an incoming req see
system.mem_ctrl.rdQLenPdf::21                       0                       # What read queue length does an incoming req see
system.mem_ctrl.rdQLenPdf::22                       0                       # What read queue length does an incoming req see
system.mem_ctrl.rdQLenPdf::23                       0                       # What read queue length does an incoming req see
system.mem_ctrl.rdQLenPdf::24                       0                       # What read queue length does an incoming req see
system.mem_ctrl.rdQLenPdf::25                       0                       # What read queue length does an incoming req see
system.mem_ctrl.rdQLenPdf::26                       0                       # What read queue length does an incoming req see
system.mem_ctrl.rdQLenPdf::27                       0                       # What read queue length does an incoming req see
system.mem_ctrl.rdQLenPdf::28                       0                       # What read queue length does an incoming req see
system.mem_ctrl.rdQLenPdf::29                       0                       # What read queue length does an incoming req see
system.mem_ctrl.rdQLenPdf::30                       0                       # What read queue length does an incoming req see
system.mem_ctrl.rdQLenPdf::31                       0                       # What read queue length does an incoming req see
system.mem_ctrl.wrQLenPdf::0                        1                       # What write queue length does an incoming req see
system.mem_ctrl.wrQLenPdf::1                        1                       # What write queue length does an incoming req see
system.mem_ctrl.wrQLenPdf::2                        1                       # What write queue length does an incoming req see
system.mem_ctrl.wrQLenPdf::3                        1                       # What write queue length does an incoming req see
system.mem_ctrl.wrQLenPdf::4                        1                       # What write queue length does an incoming req see
system.mem_ctrl.wrQLenPdf::5                        1                       # What write queue length does an incoming req see
system.mem_ctrl.wrQLenPdf::6                        1                       # What write queue length does an incoming req see
system.mem_ctrl.wrQLenPdf::7                        1                       # What write queue length does an incoming req see
system.mem_ctrl.wrQLenPdf::8                        1                       # What write queue length does an incoming req see
system.mem_ctrl.wrQLenPdf::9                        1                       # What write queue length does an incoming req see
system.mem_ctrl.wrQLenPdf::10                       1                       # What write queue length does an incoming req see
system.mem_ctrl.wrQLenPdf::11                       1                       # What write queue length does an incoming req see
system.mem_ctrl.wrQLenPdf::12                       1                       # What write queue length does an incoming req see
system.mem_ctrl.wrQLenPdf::13                       1                       # What write queue length does an incoming req see
system.mem_ctrl.wrQLenPdf::14                       1                       # What write queue length does an incoming req see
system.mem_ctrl.wrQLenPdf::15                      47                       # What write queue length does an incoming req see
system.mem_ctrl.wrQLenPdf::16                      52                       # What write queue length does an incoming req see
system.mem_ctrl.wrQLenPdf::17                     105                       # What write queue length does an incoming req see
system.mem_ctrl.wrQLenPdf::18                     134                       # What write queue length does an incoming req see
system.mem_ctrl.wrQLenPdf::19                     136                       # What write queue length does an incoming req see
system.mem_ctrl.wrQLenPdf::20                     132                       # What write queue length does an incoming req see
system.mem_ctrl.wrQLenPdf::21                     128                       # What write queue length does an incoming req see
system.mem_ctrl.wrQLenPdf::22                     130                       # What write queue length does an incoming req see
system.mem_ctrl.wrQLenPdf::23                     155                       # What write queue length does an incoming req see
system.mem_ctrl.wrQLenPdf::24                     132                       # What write queue length does an incoming req see
system.mem_ctrl.wrQLenPdf::25                     127                       # What write queue length does an incoming req see
system.mem_ctrl.wrQLenPdf::26                     127                       # What write queue length does an incoming req see
system.mem_ctrl.wrQLenPdf::27                     127                       # What write queue length does an incoming req see
system.mem_ctrl.wrQLenPdf::28                     127                       # What write queue length does an incoming req see
system.mem_ctrl.wrQLenPdf::29                     127                       # What write queue length does an incoming req see
system.mem_ctrl.wrQLenPdf::30                     127                       # What write queue length does an incoming req see
system.mem_ctrl.wrQLenPdf::31                     127                       # What write queue length does an incoming req see
system.mem_ctrl.wrQLenPdf::32                     127                       # What write queue length does an incoming req see
system.mem_ctrl.wrQLenPdf::33                       0                       # What write queue length does an incoming req see
system.mem_ctrl.wrQLenPdf::34                       0                       # What write queue length does an incoming req see
system.mem_ctrl.wrQLenPdf::35                       0                       # What write queue length does an incoming req see
system.mem_ctrl.wrQLenPdf::36                       0                       # What write queue length does an incoming req see
system.mem_ctrl.wrQLenPdf::37                       0                       # What write queue length does an incoming req see
system.mem_ctrl.wrQLenPdf::38                       0                       # What write queue length does an incoming req see
system.mem_ctrl.wrQLenPdf::39                       0                       # What write queue length does an incoming req see
system.mem_ctrl.wrQLenPdf::40                       0                       # What write queue length does an incoming req see
system.mem_ctrl.wrQLenPdf::41                       0                       # What write queue length does an incoming req see
system.mem_ctrl.wrQLenPdf::42                       0                       # What write queue length does an incoming req see
system.mem_ctrl.wrQLenPdf::43                       0                       # What write queue length does an incoming req see
system.mem_ctrl.wrQLenPdf::44                       0                       # What write queue length does an incoming req see
system.mem_ctrl.wrQLenPdf::45                       0                       # What write queue length does an incoming req see
system.mem_ctrl.wrQLenPdf::46                       0                       # What write queue length does an incoming req see
system.mem_ctrl.wrQLenPdf::47                       0                       # What write queue length does an incoming req see
system.mem_ctrl.wrQLenPdf::48                       0                       # What write queue length does an incoming req see
system.mem_ctrl.wrQLenPdf::49                       0                       # What write queue length does an incoming req see
system.mem_ctrl.wrQLenPdf::50                       0                       # What write queue length does an incoming req see
system.mem_ctrl.wrQLenPdf::51                       0                       # What write queue length does an incoming req see
system.mem_ctrl.wrQLenPdf::52                       0                       # What write queue length does an incoming req see
system.mem_ctrl.wrQLenPdf::53                       0                       # What write queue length does an incoming req see
system.mem_ctrl.wrQLenPdf::54                       0                       # What write queue length does an incoming req see
system.mem_ctrl.wrQLenPdf::55                       0                       # What write queue length does an incoming req see
system.mem_ctrl.wrQLenPdf::56                       0                       # What write queue length does an incoming req see
system.mem_ctrl.wrQLenPdf::57                       0                       # What write queue length does an incoming req see
system.mem_ctrl.wrQLenPdf::58                       0                       # What write queue length does an incoming req see
system.mem_ctrl.wrQLenPdf::59                       0                       # What write queue length does an incoming req see
system.mem_ctrl.wrQLenPdf::60                       0                       # What write queue length does an incoming req see
system.mem_ctrl.wrQLenPdf::61                       0                       # What write queue length does an incoming req see
system.mem_ctrl.wrQLenPdf::62                       0                       # What write queue length does an incoming req see
system.mem_ctrl.wrQLenPdf::63                       0                       # What write queue length does an incoming req see
system.mem_ctrl.bytesPerActivate::samples          670                       # Bytes accessed per row activation
system.mem_ctrl.bytesPerActivate::mean     404.632836                       # Bytes accessed per row activation
system.mem_ctrl.bytesPerActivate::gmean    282.450010                       # Bytes accessed per row activation
system.mem_ctrl.bytesPerActivate::stdev    315.892216                       # Bytes accessed per row activation
system.mem_ctrl.bytesPerActivate::0-127           110     16.42%     16.42% # Bytes accessed per row activation
system.mem_ctrl.bytesPerActivate::128-255          147     21.94%     38.36% # Bytes accessed per row activation
system.mem_ctrl.bytesPerActivate::256-383          109     16.27%     54.63% # Bytes accessed per row activation
system.mem_ctrl.bytesPerActivate::384-511           86     12.84%     67.46% # Bytes accessed per row activation
system.mem_ctrl.bytesPerActivate::512-639           60      8.96%     76.42% # Bytes accessed per row activation
system.mem_ctrl.bytesPerActivate::640-767           28      4.18%     80.60% # Bytes accessed per row activation
system.mem_ctrl.bytesPerActivate::768-895           32      4.78%     85.37% # Bytes accessed per row activation
system.mem_ctrl.bytesPerActivate::896-1023           23      3.43%     88.81% # Bytes accessed per row activation
system.mem_ctrl.bytesPerActivate::1024-1151           75     11.19%    100.00% # Bytes accessed per row activation
system.mem_ctrl.bytesPerActivate::total           670                       # Bytes accessed per row activation
system.mem_ctrl.rdPerTurnAround::samples          127                       # Reads before turning the bus around for writes
system.mem_ctrl.rdPerTurnAround::mean       16.566929                       # Reads before turning the bus around for writes
system.mem_ctrl.rdPerTurnAround::gmean      16.403369                       # Reads before turning the bus around for writes
system.mem_ctrl.rdPerTurnAround::stdev       3.105526                       # Reads before turning the bus around for writes
system.mem_ctrl.rdPerTurnAround::14-15             42     33.07%     33.07% # Reads before turning the bus around for writes
system.mem_ctrl.rdPerTurnAround::16-17             54     42.52%     75.59% # Reads before turning the bus around for writes
system.mem_ctrl.rdPerTurnAround::18-19             30     23.62%     99.21% # Reads before turning the bus around for writes
system.mem_ctrl.rdPerTurnAround::48-49              1      0.79%    100.00% # Reads before turning the bus around for writes
system.mem_ctrl.rdPerTurnAround::total            127                       # Reads before turning the bus around for writes
system.mem_ctrl.wrPerTurnAround::samples          127                       # Writes before turning the bus around for reads
system.mem_ctrl.wrPerTurnAround::mean       17.007874                       # Writes before turning the bus around for reads
system.mem_ctrl.wrPerTurnAround::gmean      16.962877                       # Writes before turning the bus around for reads
system.mem_ctrl.wrPerTurnAround::stdev       1.263003                       # Writes before turning the bus around for reads
system.mem_ctrl.wrPerTurnAround::16                71     55.91%     55.91% # Writes before turning the bus around for reads
system.mem_ctrl.wrPerTurnAround::17                10      7.87%     63.78% # Writes before turning the bus around for reads
system.mem_ctrl.wrPerTurnAround::18                23     18.11%     81.89% # Writes before turning the bus around for reads
system.mem_ctrl.wrPerTurnAround::19                20     15.75%     97.64% # Writes before turning the bus around for reads
system.mem_ctrl.wrPerTurnAround::20                 3      2.36%    100.00% # Writes before turning the bus around for reads
system.mem_ctrl.wrPerTurnAround::total            127                       # Writes before turning the bus around for reads
system.mem_ctrl.totQLat                      33205500                       # Total ticks spent queuing
system.mem_ctrl.totMemAccLat                 72730500                       # Total ticks spent from burst creation until serviced by the DRAM
system.mem_ctrl.totBusLat                    10540000                       # Total ticks spent in databus transfers
system.mem_ctrl.avgQLat                      15752.13                       # Average queueing delay per DRAM burst
system.mem_ctrl.avgBusLat                     5000.00                       # Average bus latency per DRAM burst
system.mem_ctrl.avgMemAccLat                 34502.13                       # Average memory access latency per DRAM burst
system.mem_ctrl.avgRdBW                        390.45                       # Average DRAM read bandwidth in MiByte/s
system.mem_ctrl.avgWrBW                        400.09                       # Average achieved write bandwidth in MiByte/s
system.mem_ctrl.avgRdBWSys                    1851.69                       # Average system read bandwidth in MiByte/s
system.mem_ctrl.avgWrBWSys                    1848.73                       # Average system write bandwidth in MiByte/s
system.mem_ctrl.peakBW                       12800.00                       # Theoretical peak bandwidth in MiByte/s
system.mem_ctrl.busUtil                          6.18                       # Data bus utilization in percentage
system.mem_ctrl.busUtilRead                      3.05                       # Data bus utilization in percentage for reads
system.mem_ctrl.busUtilWrite                     3.13                       # Data bus utilization in percentage for writes
system.mem_ctrl.avgRdQLen                        1.00                       # Average read queue length when enqueuing
system.mem_ctrl.avgWrQLen                       25.14                       # Average write queue length when enqueuing
system.mem_ctrl.readRowHits                      1591                       # Number of row buffer hits during reads
system.mem_ctrl.writeRowHits                     1999                       # Number of row buffer hits during writes
system.mem_ctrl.readRowHitRate                  75.47                       # Row buffer hit rate for reads
system.mem_ctrl.writeRowHitRate                 91.61                       # Row buffer hit rate for writes
system.mem_ctrl.avgGap                       17295.12                       # Average gap between requests
system.mem_ctrl.pageHitRate                     83.68                       # Row buffer hit rate, read and write combined
system.mem_ctrl_0.actEnergy                   2813160                       # Energy for activate commands per rank (pJ)
system.mem_ctrl_0.preEnergy                   1476255                       # Energy for precharge commands per rank (pJ)
system.mem_ctrl_0.readEnergy                  8796480                       # Energy for read commands per rank (pJ)
system.mem_ctrl_0.writeEnergy                 6462360                       # Energy for write commands per rank (pJ)
system.mem_ctrl_0.refreshEnergy          27044160.000000                       # Energy for refresh commands per rank (pJ)
system.mem_ctrl_0.actBackEnergy              33082800                       # Energy for active background per rank (pJ)
system.mem_ctrl_0.preBackEnergy                569760                       # Energy for precharge background per rank (pJ)
system.mem_ctrl_0.actPowerDownEnergy        121064580                       # Energy for active power-down per rank (pJ)
system.mem_ctrl_0.prePowerDownEnergy          2304000                       # Energy for precharge power-down per rank (pJ)
system.mem_ctrl_0.selfRefreshEnergy                 0                       # Energy for self refresh per rank (pJ)
system.mem_ctrl_0.totalEnergy               203613555                       # Total energy per rank (pJ)
system.mem_ctrl_0.averagePower             589.285344                       # Core power per rank (mW)
system.mem_ctrl_0.totalIdleTime             271153750                       # Total Idle time Per DRAM Rank
system.mem_ctrl_0.memoryStateTime::IDLE        229000                       # Time in different power states
system.mem_ctrl_0.memoryStateTime::REF       11440000                       # Time in different power states
system.mem_ctrl_0.memoryStateTime::SREF             0                       # Time in different power states
system.mem_ctrl_0.memoryStateTime::PRE_PDN      5995500                       # Time in different power states
system.mem_ctrl_0.memoryStateTime::ACT       62356750                       # Time in different power states
system.mem_ctrl_0.memoryStateTime::ACT_PDN    265504750                       # Time in different power states
system.mem_ctrl_1.actEnergy                   2027760                       # Energy for activate commands per rank (pJ)
system.mem_ctrl_1.preEnergy                   1066395                       # Energy for precharge commands per rank (pJ)
system.mem_ctrl_1.readEnergy                  6254640                       # Energy for read commands per rank (pJ)
system.mem_ctrl_1.writeEnergy                 4812840                       # Energy for write commands per rank (pJ)
system.mem_ctrl_1.refreshEnergy          27044160.000000                       # Energy for refresh commands per rank (pJ)
system.mem_ctrl_1.actBackEnergy              34111650                       # Energy for active background per rank (pJ)
system.mem_ctrl_1.preBackEnergy                750720                       # Energy for precharge background per rank (pJ)
system.mem_ctrl_1.actPowerDownEnergy        112628580                       # Energy for active power-down per rank (pJ)
system.mem_ctrl_1.prePowerDownEnergy          8360640                       # Energy for precharge power-down per rank (pJ)
system.mem_ctrl_1.selfRefreshEnergy                 0                       # Energy for self refresh per rank (pJ)
system.mem_ctrl_1.totalEnergy               197057385                       # Total energy per rank (pJ)
system.mem_ctrl_1.averagePower             570.310895                       # Core power per rank (mW)
system.mem_ctrl_1.totalIdleTime             268631750                       # Total Idle time Per DRAM Rank
system.mem_ctrl_1.memoryStateTime::IDLE        666000                       # Time in different power states
system.mem_ctrl_1.memoryStateTime::REF       11440000                       # Time in different power states
system.mem_ctrl_1.memoryStateTime::SREF             0                       # Time in different power states
system.mem_ctrl_1.memoryStateTime::PRE_PDN     21759250                       # Time in different power states
system.mem_ctrl_1.memoryStateTime::ACT       64655000                       # Time in different power states
system.mem_ctrl_1.memoryStateTime::ACT_PDN    247005750                       # Time in different power states
system.pwrStateResidencyTicks::UNDEFINED    345526000                       # Cumulative time (in ticks) in various power states
system.cache.pwrStateResidencyTicks::UNDEFINED    345526000                       # Cumulative time (in ticks) in various power states
system.cache.hits                                7192                       # Number of hits
system.cache.misses                              9997                       # Number of misses
system.cache.missLatency::samples                9997                       # Ticks for misses to the cache
system.cache.missLatency::mean           32843.553066                       # Ticks for misses to the cache
system.cache.missLatency::gmean          29080.391009                       # Ticks for misses to the cache
system.cache.missLatency::stdev          23371.277636                       # Ticks for misses to the cache
system.cache.missLatency::0-32767                7889     78.91%     78.91% # Ticks for misses to the cache
system.cache.missLatency::32768-65535            1550     15.50%     94.42% # Ticks for misses to the cache
system.cache.missLatency::65536-98303             448      4.48%     98.90% # Ticks for misses to the cache
system.cache.missLatency::98304-131071             25      0.25%     99.15% # Ticks for misses to the cache
system.cache.missLatency::131072-163839            47      0.47%     99.62% # Ticks for misses to the cache
system.cache.missLatency::163840-196607             9      0.09%     99.71% # Ticks for misses to the cache
system.cache.missLatency::196608-229375             3      0.03%     99.74% # Ticks for misses to the cache
system.cache.missLatency::229376-262143             3      0.03%     99.77% # Ticks for misses to the cache
system.cache.missLatency::262144-294911             7      0.07%     99.84% # Ticks for misses to the cache
system.cache.missLatency::294912-327679             7      0.07%     99.91% # Ticks for misses to the cache
system.cache.missLatency::327680-360447             9      0.09%    100.00% # Ticks for misses to the cache
system.cache.missLatency::360448-393215             0      0.00%    100.00% # Ticks for misses to the cache
system.cache.missLatency::393216-425983             0      0.00%    100.00% # Ticks for misses to the cache
system.cache.missLatency::425984-458751             0      0.00%    100.00% # Ticks for misses to the cache
system.cache.missLatency::458752-491519             0      0.00%    100.00% # Ticks for misses to the cache
system.cache.missLatency::491520-524287             0      0.00%    100.00% # Ticks for misses to the cache
system.cache.missLatency::total                  9997                       # Ticks for misses to the cache
system.cache.hitRatio                        0.418407                       # The ratio of hits to the total accesses to the cache
system.cpu.dtb.fetch_hits                           0                       # ITB hits
system.cpu.dtb.fetch_misses                         0                       # ITB misses
system.cpu.dtb.fetch_acv                            0                       # ITB acv
system.cpu.dtb.fetch_accesses                       0                       # ITB accesses
system.cpu.dtb.read_hits                         2627                       # DTB read hits
system.cpu.dtb.read_misses                         10                       # DTB read misses
system.cpu.dtb.read_acv                             0                       # DTB read access violations
system.cpu.dtb.read_accesses                     2637                       # DTB read accesses
system.cpu.dtb.write_hits                        1882                       # DTB write hits
system.cpu.dtb.write_misses                         2                       # DTB write misses
system.cpu.dtb.write_acv                            0                       # DTB write access violations
system.cpu.dtb.write_accesses                    1884                       # DTB write accesses
system.cpu.dtb.data_hits                         4509                       # DTB hits
system.cpu.dtb.data_misses                         12                       # DTB misses
system.cpu.dtb.data_acv                             0                       # DTB access violations
system.cpu.dtb.data_accesses                     4521                       # DTB accesses
system.cpu.itb.fetch_hits                       12681                       # ITB hits
system.cpu.itb.fetch_misses                        24                       # ITB misses
system.cpu.itb.fetch_acv                            0                       # ITB acv
system.cpu.itb.fetch_accesses                   12705                       # ITB accesses
system.cpu.itb.read_hits                            0                       # DTB read hits
system.cpu.itb.read_misses                          0                       # DTB read misses
system.cpu.itb.read_acv                             0                       # DTB read access violations
system.cpu.itb.read_accesses                        0                       # DTB read accesses
system.cpu.itb.write_hits                           0                       # DTB write hits
system.cpu.itb.write_misses                         0                       # DTB write misses
system.cpu.itb.write_acv                            0                       # DTB write access violations
system.cpu.itb.write_accesses                       0                       # DTB write accesses
system.cpu.itb.data_hits                            0                       # DTB hits
system.cpu.itb.data_misses                          0                       # DTB misses
system.cpu.itb.data_acv                             0                       # DTB access violations
system.cpu.itb.data_accesses                        0                       # DTB accesses
system.cpu.workload.numSyscalls                    11                       # Number of system calls
system.cpu.pwrStateResidencyTicks::ON       345526000                       # Cumulative time (in ticks) in various power states
system.cpu.numCycles                           345526                       # number of cpu cycles simulated
system.cpu.numWorkItemsStarted                      0                       # number of work items this cpu started
system.cpu.numWorkItemsCompleted                    0                       # number of work items this cpu completed
system.cpu.committedInsts                       12668                       # Number of instructions committed
system.cpu.committedOps                         12668                       # Number of ops (including micro ops) committed
system.cpu.num_int_alu_accesses                 12547                       # Number of integer alu accesses
system.cpu.num_fp_alu_accesses                     70                       # Number of float alu accesses
system.cpu.num_vec_alu_accesses                     0                       # Number of vector alu accesses
system.cpu.num_func_calls                         405                       # number of times a function call or return occured
system.cpu.num_conditional_control_insts         1332                       # number of instructions that are conditional controls
system.cpu.num_int_insts                        12547                       # number of integer instructions
system.cpu.num_fp_insts                            70                       # number of float instructions
system.cpu.num_vec_insts                            0                       # number of vector instructions
system.cpu.num_int_register_reads               17261                       # number of times the integer registers were read
system.cpu.num_int_register_writes               9102                       # number of times the integer registers were written
system.cpu.num_fp_register_reads                   68                       # number of times the floating registers were read
system.cpu.num_fp_register_writes                   2                       # number of times the floating registers were written
system.cpu.num_vec_register_reads                   0                       # number of times the vector registers were read
system.cpu.num_vec_register_writes                  0                       # number of times the vector registers were written
system.cpu.num_mem_refs                          4521                       # number of memory refs
system.cpu.num_load_insts                        2637                       # Number of load instructions
system.cpu.num_store_insts                       1884                       # Number of store instructions
system.cpu.num_idle_cycles                          0                       # Number of idle cycles
system.cpu.num_busy_cycles                     345526                       # Number of busy cycles
system.cpu.not_idle_fraction                        1                       # Percentage of non-idle cycles
system.cpu.idle_fraction                            0                       # Percentage of idle cycles
system.cpu.Branches                              1857                       # Number of branches fetched
system.cpu.op_class::No_OpClass                    22      0.17%      0.17% # Class of executed instruction
system.cpu.op_class::IntAlu                      8096     63.85%     64.02% # Class of executed instruction
system.cpu.op_class::IntMult                       39      0.31%     64.33% # Class of executed instruction
system.cpu.op_class::IntDiv                         0      0.00%     64.33% # Class of executed instruction
system.cpu.op_class::FloatAdd                       2      0.02%     64.35% # Class of executed instruction
system.cpu.op_class::FloatCmp                       0      0.00%     64.35% # Class of executed instruction
system.cpu.op_class::FloatCvt                       0      0.00%     64.35% # Class of executed instruction
system.cpu.op_class::FloatMult                      0      0.00%     64.35% # Class of executed instruction
system.cpu.op_class::FloatMultAcc                   0      0.00%     64.35% # Class of executed instruction
system.cpu.op_class::FloatDiv                       0      0.00%     64.35% # Class of executed instruction
system.cpu.op_class::FloatMisc                      0      0.00%     64.35% # Class of executed instruction
system.cpu.op_class::FloatSqrt                      0      0.00%     64.35% # Class of executed instruction
system.cpu.op_class::SimdAdd                        0      0.00%     64.35% # Class of executed instruction
system.cpu.op_class::SimdAddAcc                     0      0.00%     64.35% # Class of executed instruction
system.cpu.op_class::SimdAlu                        0      0.00%     64.35% # Class of executed instruction
system.cpu.op_class::SimdCmp                        0      0.00%     64.35% # Class of executed instruction
system.cpu.op_class::SimdCvt                        0      0.00%     64.35% # Class of executed instruction
system.cpu.op_class::SimdMisc                       0      0.00%     64.35% # Class of executed instruction
system.cpu.op_class::SimdMult                       0      0.00%     64.35% # Class of executed instruction
system.cpu.op_class::SimdMultAcc                    0      0.00%     64.35% # Class of executed instruction
system.cpu.op_class::SimdShift                      0      0.00%     64.35% # Class of executed instruction
system.cpu.op_class::SimdShiftAcc                   0      0.00%     64.35% # Class of executed instruction
system.cpu.op_class::SimdSqrt                       0      0.00%     64.35% # Class of executed instruction
system.cpu.op_class::SimdFloatAdd                   0      0.00%     64.35% # Class of executed instruction
system.cpu.op_class::SimdFloatAlu                   0      0.00%     64.35% # Class of executed instruction
system.cpu.op_class::SimdFloatCmp                   0      0.00%     64.35% # Class of executed instruction
system.cpu.op_class::SimdFloatCvt                   0      0.00%     64.35% # Class of executed instruction
system.cpu.op_class::SimdFloatDiv                   0      0.00%     64.35% # Class of executed instruction
system.cpu.op_class::SimdFloatMisc                  0      0.00%     64.35% # Class of executed instruction
system.cpu.op_class::SimdFloatMult                  0      0.00%     64.35% # Class of executed instruction
system.cpu.op_class::SimdFloatMultAcc               0      0.00%     64.35% # Class of executed instruction
system.cpu.op_class::SimdFloatSqrt                  0      0.00%     64.35% # Class of executed instruction
system.cpu.op_class::MemRead                     2636     20.79%     85.13% # Class of executed instruction
system.cpu.op_class::MemWrite                    1817     14.33%     99.46% # Class of executed instruction
system.cpu.op_class::FloatMemRead                   1      0.01%     99.47% # Class of executed instruction
system.cpu.op_class::FloatMemWrite                 67      0.53%    100.00% # Class of executed instruction
system.cpu.op_class::IprAccess                      0      0.00%    100.00% # Class of executed instruction
system.cpu.op_class::InstPrefetch                   0      0.00%    100.00% # Class of executed instruction
system.cpu.op_class::total                      12680                       # Class of executed instruction
system.membus.snoop_filter.tot_requests             0                       # Total number of requests made to the snoop filter.
system.membus.snoop_filter.hit_single_requests            0                       # Number of requests hitting in the snoop filter with a single holder of the requested data.
system.membus.snoop_filter.hit_multi_requests            0                       # Number of requests hitting in the snoop filter with multiple (>1) holders of the requested data.
system.membus.snoop_filter.tot_snoops               0                       # Total number of snoops made to the snoop filter.
system.membus.snoop_filter.hit_single_snoops            0                       # Number of snoops hitting in the snoop filter with a single holder of the requested data.
system.membus.snoop_filter.hit_multi_snoops            0                       # Number of snoops hitting in the snoop filter with multiple (>1) holders of the requested data.
system.membus.pwrStateResidencyTicks::UNDEFINED    345526000                       # Cumulative time (in ticks) in various power states
system.membus.trans_dist::ReadReq                9997                       # Transaction distribution
system.membus.trans_dist::ReadResp               9997                       # Transaction distribution
system.membus.trans_dist::WritebackDirty         9981                       # Transaction distribution
system.membus.pkt_count_system.cache.mem_side::system.mem_ctrl.port        29975                       # Packet count per connected master and slave (bytes)
system.membus.pkt_count::total                  29975                       # Packet count per connected master and slave (bytes)
system.membus.pkt_size_system.cache.mem_side::system.mem_ctrl.port      1278592                       # Cumulative packet size per connected master and slave (bytes)
system.membus.pkt_size::total                 1278592                       # Cumulative packet size per connected master and slave (bytes)
system.membus.snoops                                0                       # Total snoops (count)
system.membus.snoopTraffic                          0                       # Total snoop traffic (bytes)
system.membus.snoop_fanout::samples              9997                       # Request fanout histogram
system.membus.snoop_fanout::mean                    0                       # Request fanout histogram
system.membus.snoop_fanout::stdev                   0                       # Request fanout histogram
system.membus.snoop_fanout::underflows              0      0.00%      0.00% # Request fanout histogram
system.membus.snoop_fanout::0                    9997    100.00%    100.00% # Request fanout histogram
system.membus.snoop_fanout::overflows               0      0.00%    100.00% # Request fanout histogram
system.membus.snoop_fanout::min_value               0                       # Request fanout histogram
system.membus.snoop_fanout::max_value               0                       # Request fanout histogram
system.membus.snoop_fanout::total                9997                       # Request fanout histogram
system.membus.reqLayer0.occupancy            59902000                       # Layer occupancy (ticks)
system.membus.reqLayer0.utilization              17.3                       # Layer utilization (%)
system.membus.respLayer0.occupancy           50660500                       # Layer occupancy (ticks)
system.membus.respLayer0.utilization             14.7                       # Layer utilization (%)

---------- End Simulation Statistics   ----------
