
---------- Begin Simulation Statistics ----------
sim_seconds                                  0.000215                       # Number of seconds simulated
sim_ticks                                   214900000                       # Number of ticks simulated
final_tick                                  214900000                       # Number of ticks from beginning of simulation (restored from checkpoints and never reset)
sim_freq                                 1000000000000                       # Frequency of simulated ticks
host_inst_rate                                 260350                       # Simulator instruction rate (inst/s)
host_op_rate                                   260265                       # Simulator op (including micro ops) rate (op/s)
host_tick_rate                             6401167640                       # Simulator tick rate (ticks/s)
host_mem_usage                                6706324                       # Number of bytes of host memory used
host_seconds                                     0.03                       # Real time elapsed on the host
sim_insts                                        8735                       # Number of instructions simulated
sim_ops                                          8735                       # Number of ops (including micro ops) simulated
system.clk_domain.voltage_domain.voltage            1                       # Voltage in Volts
system.clk_domain.clock                          1000                       # Clock period in ticks
system.mem_ctrl.pwrStateResidencyTicks::UNDEFINED    214900000                       # Cumulative time (in ticks) in various power states
system.mem_ctrl.bytes_read::cpu.inst           226496                       # Number of bytes read from this memory
system.mem_ctrl.bytes_read::cpu.data           174336                       # Number of bytes read from this memory
system.mem_ctrl.bytes_read::total              400832                       # Number of bytes read from this memory
system.mem_ctrl.bytes_inst_read::cpu.inst       226496                       # Number of instructions bytes read from this memory
system.mem_ctrl.bytes_inst_read::total         226496                       # Number of instructions bytes read from this memory
system.mem_ctrl.bytes_written::writebacks       399808                       # Number of bytes written to this memory
system.mem_ctrl.bytes_written::total           399808                       # Number of bytes written to this memory
system.mem_ctrl.num_reads::cpu.inst              3539                       # Number of read requests responded to by this memory
system.mem_ctrl.num_reads::cpu.data              2724                       # Number of read requests responded to by this memory
system.mem_ctrl.num_reads::total                 6263                       # Number of read requests responded to by this memory
system.mem_ctrl.num_writes::writebacks           6247                       # Number of write requests responded to by this memory
system.mem_ctrl.num_writes::total                6247                       # Number of write requests responded to by this memory
system.mem_ctrl.bw_read::cpu.inst          1053959981                       # Total read bandwidth from this memory (bytes/s)
system.mem_ctrl.bw_read::cpu.data           811242438                       # Total read bandwidth from this memory (bytes/s)
system.mem_ctrl.bw_read::total             1865202420                       # Total read bandwidth from this memory (bytes/s)
system.mem_ctrl.bw_inst_read::cpu.inst     1053959981                       # Instruction read bandwidth from this memory (bytes/s)
system.mem_ctrl.bw_inst_read::total        1053959981                       # Instruction read bandwidth from this memory (bytes/s)
system.mem_ctrl.bw_write::writebacks       1860437413                       # Write bandwidth from this memory (bytes/s)
system.mem_ctrl.bw_write::total            1860437413                       # Write bandwidth from this memory (bytes/s)
system.mem_ctrl.bw_total::writebacks       1860437413                       # Total bandwidth to/from this memory (bytes/s)
system.mem_ctrl.bw_total::cpu.inst         1053959981                       # Total bandwidth to/from this memory (bytes/s)
system.mem_ctrl.bw_total::cpu.data          811242438                       # Total bandwidth to/from this memory (bytes/s)
system.mem_ctrl.bw_total::total            3725639832                       # Total bandwidth to/from this memory (bytes/s)
system.mem_ctrl.readReqs                         6263                       # Number of read requests accepted
system.mem_ctrl.writeReqs                        6247                       # Number of write requests accepted
system.mem_ctrl.readBursts                       6263                       # Number of DRAM read bursts, including those serviced by the write queue
system.mem_ctrl.writeBursts                      6247                       # Number of DRAM write bursts, including those merged in the write queue
system.mem_ctrl.bytesReadDRAM                   77888                       # Total number of bytes read from DRAM
system.mem_ctrl.bytesReadWrQ                   322944                       # Total number of bytes read from write queue
system.mem_ctrl.bytesWritten                    78656                       # Total number of bytes written to DRAM
system.mem_ctrl.bytesReadSys                   400832                       # Total read bytes from the system interface side
system.mem_ctrl.bytesWrittenSys                399808                       # Total written bytes from the system interface side
system.mem_ctrl.servicedByWrQ                    5046                       # Number of DRAM read bursts serviced by the write queue
system.mem_ctrl.mergedWrBursts                   4999                       # Number of DRAM write bursts merged with an existing one
system.mem_ctrl.neitherReadNorWriteReqs             0                       # Number of requests that are neither read nor write
system.mem_ctrl.perBankRdBursts::0                 91                       # Per bank write bursts
system.mem_ctrl.perBankRdBursts::1                 23                       # Per bank write bursts
system.mem_ctrl.perBankRdBursts::2                242                       # Per bank write bursts
system.mem_ctrl.perBankRdBursts::3                190                       # Per bank write bursts
system.mem_ctrl.perBankRdBursts::4                110                       # Per bank write bursts
system.mem_ctrl.perBankRdBursts::5                 55                       # Per bank write bursts
system.mem_ctrl.perBankRdBursts::6                 31                       # Per bank write bursts
system.mem_ctrl.perBankRdBursts::7                 62                       # Per bank write bursts
system.mem_ctrl.perBankRdBursts::8                  3                       # Per bank write bursts
system.mem_ctrl.perBankRdBursts::9                172                       # Per bank write bursts
system.mem_ctrl.perBankRdBursts::10                12                       # Per bank write bursts
system.mem_ctrl.perBankRdBursts::11                24                       # Per bank write bursts
system.mem_ctrl.perBankRdBursts::12                 5                       # Per bank write bursts
system.mem_ctrl.perBankRdBursts::13                36                       # Per bank write bursts
system.mem_ctrl.perBankRdBursts::14               101                       # Per bank write bursts
system.mem_ctrl.perBankRdBursts::15                60                       # Per bank write bursts
system.mem_ctrl.perBankWrBursts::0                 92                       # Per bank write bursts
system.mem_ctrl.perBankWrBursts::1                 24                       # Per bank write bursts
system.mem_ctrl.perBankWrBursts::2                239                       # Per bank write bursts
system.mem_ctrl.perBankWrBursts::3                191                       # Per bank write bursts
system.mem_ctrl.perBankWrBursts::4                112                       # Per bank write bursts
system.mem_ctrl.perBankWrBursts::5                 57                       # Per bank write bursts
system.mem_ctrl.perBankWrBursts::6                 31                       # Per bank write bursts
system.mem_ctrl.perBankWrBursts::7                 64                       # Per bank write bursts
system.mem_ctrl.perBankWrBursts::8                  3                       # Per bank write bursts
system.mem_ctrl.perBankWrBursts::9                184                       # Per bank write bursts
system.mem_ctrl.perBankWrBursts::10                12                       # Per bank write bursts
system.mem_ctrl.perBankWrBursts::11                25                       # Per bank write bursts
system.mem_ctrl.perBankWrBursts::12                 5                       # Per bank write bursts
system.mem_ctrl.perBankWrBursts::13                36                       # Per bank write bursts
system.mem_ctrl.perBankWrBursts::14               104                       # Per bank write bursts
system.mem_ctrl.perBankWrBursts::15                50                       # Per bank write bursts
system.mem_ctrl.numRdRetry                          0                       # Number of times read queue was full causing retry
system.mem_ctrl.numWrRetry                          0                       # Number of times write queue was full causing retry
system.mem_ctrl.totGap                      214896000                       # Total gap between requests
system.mem_ctrl.readPktSize::0                      0                       # Read request sizes (log2)
system.mem_ctrl.readPktSize::1                      0                       # Read request sizes (log2)
system.mem_ctrl.readPktSize::2                      0                       # Read request sizes (log2)
system.mem_ctrl.readPktSize::3                      0                       # Read request sizes (log2)
system.mem_ctrl.readPktSize::4                      0                       # Read request sizes (log2)
system.mem_ctrl.readPktSize::5                      0                       # Read request sizes (log2)
system.mem_ctrl.readPktSize::6                   6263                       # Read request sizes (log2)
system.mem_ctrl.writePktSize::0                     0                       # Write request sizes (log2)
system.mem_ctrl.writePktSize::1                     0                       # Write request sizes (log2)
system.mem_ctrl.writePktSize::2                     0                       # Write request sizes (log2)
system.mem_ctrl.writePktSize::3                     0                       # Write request sizes (log2)
system.mem_ctrl.writePktSize::4                     0                       # Write request sizes (log2)
system.mem_ctrl.writePktSize::5                     0                       # Write request sizes (log2)
system.mem_ctrl.writePktSize::6                  6247                       # Write request sizes (log2)
system.mem_ctrl.rdQLenPdf::0                     1217                       # What read queue length does an incoming req see
system.mem_ctrl.rdQLenPdf::1                        0                       # What read queue length does an incoming req see
system.mem_ctrl.rdQLenPdf::2                        0                       # What read queue length does an incoming req see
system.mem_ctrl.rdQLenPdf::3                        0                       # What read queue length does an incoming req see
system.mem_ctrl.rdQLenPdf::4                        0                       # What read queue length does an incoming req see
system.mem_ctrl.rdQLenPdf::5                        0                       # What read queue length does an incoming req see
system.mem_ctrl.rdQLenPdf::6                        0                       # What read queue length does an incoming req see
system.mem_ctrl.rdQLenPdf::7                        0                       # What read queue length does an incoming req see
system.mem_ctrl.rdQLenPdf::8                        0                       # What read queue length does an incoming req see
system.mem_ctrl.rdQLenPdf::9                        0                       # What read queue length does an incoming req see
system.mem_ctrl.rdQLenPdf::10                       0                       # What read queue length does an incoming req see
system.mem_ctrl.rdQLenPdf::11                       0                       # What read queue length does an incoming req see
system.mem_ctrl.rdQLenPdf::12                       0                       # What read queue length does an incoming req see
system.mem_ctrl.rdQLenPdf::13                       0                       # What read queue length does an incoming req see
system.mem_ctrl.rdQLenPdf::14                       0                       # What read queue length does an incoming req see
system.mem_ctrl.rdQLenPdf::15                       0                       # What read queue length does an incoming req see
system.mem_ctrl.rdQLenPdf::16                       0                       # What read queue length does an incoming req see
system.mem_ctrl.rdQLenPdf::17                       0                       # What read queue length does an incoming req see
system.mem_ctrl.rdQLenPdf::18                       0                       # What read queue length does an incoming req see
system.mem_ctrl.rdQLenPdf::19                       0                       # What read queue length does an incoming req see
system.mem_ctrl.rdQLenPdf::20                       0                       # What read queue length does an incoming req see
system.mem_ctrl.rdQLenPdf::21                       0                       # What read queue length does an incoming req see
system.mem_ctrl.rdQLenPdf::22                       0                       # What read queue length does an incoming req see
system.mem_ctrl.rdQLenPdf::23                       0                       # What read queue length does an incoming req see
system.mem_ctrl.rdQLenPdf::24                       0                       # What read queue length does an incoming req see
system.mem_ctrl.rdQLenPdf::25                       0                       # What read queue length does an incoming req see
system.mem_ctrl.rdQLenPdf::26                       0                       # What read queue length does an incoming req see
system.mem_ctrl.rdQLenPdf::27                       0                       # What read queue length does an incoming req see
system.mem_ctrl.rdQLenPdf::28                       0                       # What read queue length does an incoming req see
system.mem_ctrl.rdQLenPdf::29                       0                       # What read queue length does an incoming req see
system.mem_ctrl.rdQLenPdf::30                       0                       # What read queue length does an incoming req see
system.mem_ctrl.rdQLenPdf::31                       0                       # What read queue length does an incoming req see
system.mem_ctrl.wrQLenPdf::0                        1                       # What write queue length does an incoming req see
system.mem_ctrl.wrQLenPdf::1                        1                       # What write queue length does an incoming req see
system.mem_ctrl.wrQLenPdf::2                        1                       # What write queue length does an incoming req see
system.mem_ctrl.wrQLenPdf::3                        1                       # What write queue length does an incoming req see
system.mem_ctrl.wrQLenPdf::4                        1                       # What write queue length does an incoming req see
system.mem_ctrl.wrQLenPdf::5                        1                       # What write queue length does an incoming req see
system.mem_ctrl.wrQLenPdf::6                        1                       # What write queue length does an incoming req see
system.mem_ctrl.wrQLenPdf::7                        1                       # What write queue length does an incoming req see
system.mem_ctrl.wrQLenPdf::8                        1                       # What write queue length does an incoming req see
system.mem_ctrl.wrQLenPdf::9                        1                       # What write queue length does an incoming req see
system.mem_ctrl.wrQLenPdf::10                       1                       # What write queue length does an incoming req see
system.mem_ctrl.wrQLenPdf::11                       1                       # What write queue length does an incoming req see
system.mem_ctrl.wrQLenPdf::12                       1                       # What write queue length does an incoming req see
system.mem_ctrl.wrQLenPdf::13                       1                       # What write queue length does an incoming req see
system.mem_ctrl.wrQLenPdf::14                       1                       # What write queue length does an incoming req see
system.mem_ctrl.wrQLenPdf::15                      21                       # What write queue length does an incoming req see
system.mem_ctrl.wrQLenPdf::16                      25                       # What write queue length does an incoming req see
system.mem_ctrl.wrQLenPdf::17                      67                       # What write queue length does an incoming req see
system.mem_ctrl.wrQLenPdf::18                      81                       # What write queue length does an incoming req see
system.mem_ctrl.wrQLenPdf::19                      75                       # What write queue length does an incoming req see
system.mem_ctrl.wrQLenPdf::20                      73                       # What write queue length does an incoming req see
system.mem_ctrl.wrQLenPdf::21                      73                       # What write queue length does an incoming req see
system.mem_ctrl.wrQLenPdf::22                      74                       # What write queue length does an incoming req see
system.mem_ctrl.wrQLenPdf::23                      83                       # What write queue length does an incoming req see
system.mem_ctrl.wrQLenPdf::24                      77                       # What write queue length does an incoming req see
system.mem_ctrl.wrQLenPdf::25                      73                       # What write queue length does an incoming req see
system.mem_ctrl.wrQLenPdf::26                      73                       # What write queue length does an incoming req see
system.mem_ctrl.wrQLenPdf::27                      73                       # What write queue length does an incoming req see
system.mem_ctrl.wrQLenPdf::28                      73                       # What write queue length does an incoming req see
system.mem_ctrl.wrQLenPdf::29                      73                       # What write queue length does an incoming req see
system.mem_ctrl.wrQLenPdf::30                      73                       # What write queue length does an incoming req see
system.mem_ctrl.wrQLenPdf::31                      73                       # What write queue length does an incoming req see
system.mem_ctrl.wrQLenPdf::32                      73                       # What write queue length does an incoming req see
system.mem_ctrl.wrQLenPdf::33                       0                       # What write queue length does an incoming req see
system.mem_ctrl.wrQLenPdf::34                       0                       # What write queue length does an incoming req see
system.mem_ctrl.wrQLenPdf::35                       0                       # What write queue length does an incoming req see
system.mem_ctrl.wrQLenPdf::36                       0                       # What write queue length does an incoming req see
system.mem_ctrl.wrQLenPdf::37                       0                       # What write queue length does an incoming req see
system.mem_ctrl.wrQLenPdf::38                       0                       # What write queue length does an incoming req see
system.mem_ctrl.wrQLenPdf::39                       0                       # What write queue length does an incoming req see
system.mem_ctrl.wrQLenPdf::40                       0                       # What write queue length does an incoming req see
system.mem_ctrl.wrQLenPdf::41                       0                       # What write queue length does an incoming req see
system.mem_ctrl.wrQLenPdf::42                       0                       # What write queue length does an incoming req see
system.mem_ctrl.wrQLenPdf::43                       0                       # What write queue length does an incoming req see
system.mem_ctrl.wrQLenPdf::44                       0                       # What write queue length does an incoming req see
system.mem_ctrl.wrQLenPdf::45                       0                       # What write queue length does an incoming req see
system.mem_ctrl.wrQLenPdf::46                       0                       # What write queue length does an incoming req see
system.mem_ctrl.wrQLenPdf::47                       0                       # What write queue length does an incoming req see
system.mem_ctrl.wrQLenPdf::48                       0                       # What write queue length does an incoming req see
system.mem_ctrl.wrQLenPdf::49                       0                       # What write queue length does an incoming req see
system.mem_ctrl.wrQLenPdf::50                       0                       # What write queue length does an incoming req see
system.mem_ctrl.wrQLenPdf::51                       0                       # What write queue length does an incoming req see
system.mem_ctrl.wrQLenPdf::52                       0                       # What write queue length does an incoming req see
system.mem_ctrl.wrQLenPdf::53                       0                       # What write queue length does an incoming req see
system.mem_ctrl.wrQLenPdf::54                       0                       # What write queue length does an incoming req see
system.mem_ctrl.wrQLenPdf::55                       0                       # What write queue length does an incoming req see
system.mem_ctrl.wrQLenPdf::56                       0                       # What write queue length does an incoming req see
system.mem_ctrl.wrQLenPdf::57                       0                       # What write queue length does an incoming req see
system.mem_ctrl.wrQLenPdf::58                       0                       # What write queue length does an incoming req see
system.mem_ctrl.wrQLenPdf::59                       0                       # What write queue length does an incoming req see
system.mem_ctrl.wrQLenPdf::60                       0                       # What write queue length does an incoming req see
system.mem_ctrl.wrQLenPdf::61                       0                       # What write queue length does an incoming req see
system.mem_ctrl.wrQLenPdf::62                       0                       # What write queue length does an incoming req see
system.mem_ctrl.wrQLenPdf::63                       0                       # What write queue length does an incoming req see
system.mem_ctrl.bytesPerActivate::samples          382                       # Bytes accessed per row activation
system.mem_ctrl.bytesPerActivate::mean     405.612565                       # Bytes accessed per row activation
system.mem_ctrl.bytesPerActivate::gmean    271.622649                       # Bytes accessed per row activation
system.mem_ctrl.bytesPerActivate::stdev    330.257637                       # Bytes accessed per row activation
system.mem_ctrl.bytesPerActivate::0-127            72     18.85%     18.85% # Bytes accessed per row activation
system.mem_ctrl.bytesPerActivate::128-255           82     21.47%     40.31% # Bytes accessed per row activation
system.mem_ctrl.bytesPerActivate::256-383           51     13.35%     53.66% # Bytes accessed per row activation
system.mem_ctrl.bytesPerActivate::384-511           42     10.99%     64.66% # Bytes accessed per row activation
system.mem_ctrl.bytesPerActivate::512-639           40     10.47%     75.13% # Bytes accessed per row activation
system.mem_ctrl.bytesPerActivate::640-767           20      5.24%     80.37% # Bytes accessed per row activation
system.mem_ctrl.bytesPerActivate::768-895           14      3.66%     84.03% # Bytes accessed per row activation
system.mem_ctrl.bytesPerActivate::896-1023            8      2.09%     86.13% # Bytes accessed per row activation
system.mem_ctrl.bytesPerActivate::1024-1151           53     13.87%    100.00% # Bytes accessed per row activation
system.mem_ctrl.bytesPerActivate::total           382                       # Bytes accessed per row activation
system.mem_ctrl.rdPerTurnAround::samples           73                       # Reads before turning the bus around for writes
system.mem_ctrl.rdPerTurnAround::mean       16.630137                       # Reads before turning the bus around for writes
system.mem_ctrl.rdPerTurnAround::gmean      16.381537                       # Reads before turning the bus around for writes
system.mem_ctrl.rdPerTurnAround::stdev       4.032875                       # Reads before turning the bus around for writes
system.mem_ctrl.rdPerTurnAround::14-15             24     32.88%     32.88% # Reads before turning the bus around for writes
system.mem_ctrl.rdPerTurnAround::16-17             37     50.68%     83.56% # Reads before turning the bus around for writes
system.mem_ctrl.rdPerTurnAround::18-19             11     15.07%     98.63% # Reads before turning the bus around for writes
system.mem_ctrl.rdPerTurnAround::48-49              1      1.37%    100.00% # Reads before turning the bus around for writes
system.mem_ctrl.rdPerTurnAround::total             73                       # Reads before turning the bus around for writes
system.mem_ctrl.wrPerTurnAround::samples           73                       # Writes before turning the bus around for reads
system.mem_ctrl.wrPerTurnAround::mean       16.835616                       # Writes before turning the bus around for reads
system.mem_ctrl.wrPerTurnAround::gmean      16.794388                       # Writes before turning the bus around for reads
system.mem_ctrl.wrPerTurnAround::stdev       1.213508                       # Writes before turning the bus around for reads
system.mem_ctrl.wrPerTurnAround::16                46     63.01%     63.01% # Writes before turning the bus around for reads
system.mem_ctrl.wrPerTurnAround::17                 6      8.22%     71.23% # Writes before turning the bus around for reads
system.mem_ctrl.wrPerTurnAround::18                 9     12.33%     83.56% # Writes before turning the bus around for reads
system.mem_ctrl.wrPerTurnAround::19                11     15.07%     98.63% # Writes before turning the bus around for reads
system.mem_ctrl.wrPerTurnAround::20                 1      1.37%    100.00% # Writes before turning the bus around for reads
system.mem_ctrl.wrPerTurnAround::total             73                       # Writes before turning the bus around for reads
system.mem_ctrl.totQLat                      21860500                       # Total ticks spent queuing
system.mem_ctrl.totMemAccLat                 44679250                       # Total ticks spent from burst creation until serviced by the DRAM
system.mem_ctrl.totBusLat                     6085000                       # Total ticks spent in databus transfers
system.mem_ctrl.avgQLat                      17962.61                       # Average queueing delay per DRAM burst
system.mem_ctrl.avgBusLat                     5000.00                       # Average bus latency per DRAM burst
system.mem_ctrl.avgMemAccLat                 36712.61                       # Average memory access latency per DRAM burst
system.mem_ctrl.avgRdBW                        362.44                       # Average DRAM read bandwidth in MiByte/s
system.mem_ctrl.avgWrBW                        366.01                       # Average achieved write bandwidth in MiByte/s
system.mem_ctrl.avgRdBWSys                    1865.20                       # Average system read bandwidth in MiByte/s
system.mem_ctrl.avgWrBWSys                    1860.44                       # Average system write bandwidth in MiByte/s
system.mem_ctrl.peakBW                       12800.00                       # Theoretical peak bandwidth in MiByte/s
system.mem_ctrl.busUtil                          5.69                       # Data bus utilization in percentage
system.mem_ctrl.busUtilRead                      2.83                       # Data bus utilization in percentage for reads
system.mem_ctrl.busUtilWrite                     2.86                       # Data bus utilization in percentage for writes
system.mem_ctrl.avgRdQLen                        1.00                       # Average read queue length when enqueuing
system.mem_ctrl.avgWrQLen                       25.71                       # Average write queue length when enqueuing
system.mem_ctrl.readRowHits                       902                       # Number of row buffer hits during reads
system.mem_ctrl.writeRowHits                     1156                       # Number of row buffer hits during writes
system.mem_ctrl.readRowHitRate                  74.12                       # Row buffer hit rate for reads
system.mem_ctrl.writeRowHitRate                 92.63                       # Row buffer hit rate for writes
system.mem_ctrl.avgGap                       17177.94                       # Average gap between requests
system.mem_ctrl.pageHitRate                     83.49                       # Row buffer hit rate, read and write combined
system.mem_ctrl_0.actEnergy                   1992060                       # Energy for activate commands per rank (pJ)
system.mem_ctrl_0.preEnergy                   1047420                       # Energy for precharge commands per rank (pJ)
system.mem_ctrl_0.readEnergy                  5740560                       # Energy for read commands per rank (pJ)
system.mem_ctrl_0.writeEnergy                 4228200                       # Energy for write commands per rank (pJ)
system.mem_ctrl_0.refreshEnergy          17824560.000000                       # Energy for refresh commands per rank (pJ)
system.mem_ctrl_0.actBackEnergy              23478300                       # Energy for active background per rank (pJ)
system.mem_ctrl_0.preBackEnergy                552000                       # Energy for precharge background per rank (pJ)
system.mem_ctrl_0.actPowerDownEnergy         66044760                       # Energy for active power-down per rank (pJ)
system.mem_ctrl_0.prePowerDownEnergy          5754720                       # Energy for precharge power-down per rank (pJ)
system.mem_ctrl_0.selfRefreshEnergy      1650585.000000                       # Energy for self refresh per rank (pJ)
system.mem_ctrl_0.totalEnergy               128332695                       # Total energy per rank (pJ)
system.mem_ctrl_0.averagePower             597.174011                       # Core power per rank (mW)
system.mem_ctrl_0.totalIdleTime             161723750                       # Total Idle time Per DRAM Rank
system.mem_ctrl_0.memoryStateTime::IDLE        673000                       # Time in different power states
system.mem_ctrl_0.memoryStateTime::REF        7552000                       # Time in different power states
system.mem_ctrl_0.memoryStateTime::SREF       2108750                       # Time in different power states
system.mem_ctrl_0.memoryStateTime::PRE_PDN     14988250                       # Time in different power states
system.mem_ctrl_0.memoryStateTime::ACT       44767750                       # Time in different power states
system.mem_ctrl_0.memoryStateTime::ACT_PDN    144810250                       # Time in different power states
system.mem_ctrl_1.actEnergy                    778260                       # Energy for activate commands per rank (pJ)
system.mem_ctrl_1.preEnergy                    402270                       # Energy for precharge commands per rank (pJ)
system.mem_ctrl_1.readEnergy                  2948820                       # Energy for read commands per rank (pJ)
system.mem_ctrl_1.writeEnergy                 2187180                       # Energy for write commands per rank (pJ)
system.mem_ctrl_1.refreshEnergy          17209920.000000                       # Energy for refresh commands per rank (pJ)
system.mem_ctrl_1.actBackEnergy              15357510                       # Energy for active background per rank (pJ)
system.mem_ctrl_1.preBackEnergy                696000                       # Energy for precharge background per rank (pJ)
system.mem_ctrl_1.actPowerDownEnergy         65250180                       # Energy for active power-down per rank (pJ)
system.mem_ctrl_1.prePowerDownEnergy         10173600                       # Energy for precharge power-down per rank (pJ)
system.mem_ctrl_1.selfRefreshEnergy           3461880                       # Energy for self refresh per rank (pJ)
system.mem_ctrl_1.totalEnergy               118465620                       # Total energy per rank (pJ)
system.mem_ctrl_1.averagePower             551.259283                       # Core power per rank (mW)
system.mem_ctrl_1.totalIdleTime             179413250                       # Total Idle time Per DRAM Rank
system.mem_ctrl_1.memoryStateTime::IDLE       1080000                       # Time in different power states
system.mem_ctrl_1.memoryStateTime::REF        7292000                       # Time in different power states
system.mem_ctrl_1.memoryStateTime::SREF       9822500                       # Time in different power states
system.mem_ctrl_1.memoryStateTime::PRE_PDN     26493000                       # Time in different power states
system.mem_ctrl_1.memoryStateTime::ACT       27114750                       # Time in different power states
system.mem_ctrl_1.memoryStateTime::ACT_PDN    143097750                       # Time in different power states
system.pwrStateResidencyTicks::UNDEFINED    214900000                       # Cumulative time (in ticks) in various power states
system.cache.pwrStateResidencyTicks::UNDEFINED    214900000                       # Cumulative time (in ticks) in various power states
system.cache.hits                                5399                       # Number of hits
system.cache.misses                              6263                       # Number of misses
system.cache.missLatency::samples                6263                       # Ticks for misses to the cache
system.cache.missLatency::mean           32450.582788                       # Ticks for misses to the cache
system.cache.missLatency::gmean          28580.016750                       # Ticks for misses to the cache
system.cache.missLatency::stdev          25637.912005                       # Ticks for misses to the cache
system.cache.missLatency::0-65535                5920     94.52%     94.52% # Ticks for misses to the cache
system.cache.missLatency::65536-131071            282      4.50%     99.03% # Ticks for misses to the cache
system.cache.missLatency::131072-196607            42      0.67%     99.70% # Ticks for misses to the cache
system.cache.missLatency::196608-262143             6      0.10%     99.79% # Ticks for misses to the cache
system.cache.missLatency::262144-327679             8      0.13%     99.92% # Ticks for misses to the cache
system.cache.missLatency::327680-393215             0      0.00%     99.92% # Ticks for misses to the cache
system.cache.missLatency::393216-458751             3      0.05%     99.97% # Ticks for misses to the cache
system.cache.missLatency::458752-524287             0      0.00%     99.97% # Ticks for misses to the cache
system.cache.missLatency::524288-589823             0      0.00%     99.97% # Ticks for misses to the cache
system.cache.missLatency::589824-655359             2      0.03%    100.00% # Ticks for misses to the cache
system.cache.missLatency::655360-720895             0      0.00%    100.00% # Ticks for misses to the cache
system.cache.missLatency::720896-786431             0      0.00%    100.00% # Ticks for misses to the cache
system.cache.missLatency::786432-851967             0      0.00%    100.00% # Ticks for misses to the cache
system.cache.missLatency::851968-917503             0      0.00%    100.00% # Ticks for misses to the cache
system.cache.missLatency::917504-983039             0      0.00%    100.00% # Ticks for misses to the cache
system.cache.missLatency::983040-1.04858e+06            0      0.00%    100.00% # Ticks for misses to the cache
system.cache.missLatency::total                  6263                       # Ticks for misses to the cache
system.cache.hitRatio                        0.462957                       # The ratio of hits to the total accesses to the cache
system.cpu.dtb.fetch_hits                           0                       # ITB hits
system.cpu.dtb.fetch_misses                         0                       # ITB misses
system.cpu.dtb.fetch_acv                            0                       # ITB acv
system.cpu.dtb.fetch_accesses                       0                       # ITB accesses
system.cpu.dtb.read_hits                         1706                       # DTB read hits
system.cpu.dtb.read_misses                         10                       # DTB read misses
system.cpu.dtb.read_acv                             0                       # DTB read access violations
system.cpu.dtb.read_accesses                     1716                       # DTB read accesses
system.cpu.dtb.write_hits                        1209                       # DTB write hits
system.cpu.dtb.write_misses                         2                       # DTB write misses
system.cpu.dtb.write_acv                            0                       # DTB write access violations
system.cpu.dtb.write_accesses                    1211                       # DTB write accesses
system.cpu.dtb.data_hits                         2915                       # DTB hits
system.cpu.dtb.data_misses                         12                       # DTB misses
system.cpu.dtb.data_acv                             0                       # DTB access violations
system.cpu.dtb.data_accesses                     2927                       # DTB accesses
system.cpu.itb.fetch_hits                        8748                       # ITB hits
system.cpu.itb.fetch_misses                        19                       # ITB misses
system.cpu.itb.fetch_acv                            0                       # ITB acv
system.cpu.itb.fetch_accesses                    8767                       # ITB accesses
system.cpu.itb.read_hits                            0                       # DTB read hits
system.cpu.itb.read_misses                          0                       # DTB read misses
system.cpu.itb.read_acv                             0                       # DTB read access violations
system.cpu.itb.read_accesses                        0                       # DTB read accesses
system.cpu.itb.write_hits                           0                       # DTB write hits
system.cpu.itb.write_misses                         0                       # DTB write misses
system.cpu.itb.write_acv                            0                       # DTB write access violations
system.cpu.itb.write_accesses                       0                       # DTB write accesses
system.cpu.itb.data_hits                            0                       # DTB hits
system.cpu.itb.data_misses                          0                       # DTB misses
system.cpu.itb.data_acv                             0                       # DTB access violations
system.cpu.itb.data_accesses                        0                       # DTB accesses
system.cpu.workload.numSyscalls                    10                       # Number of system calls
system.cpu.pwrStateResidencyTicks::ON       214900000                       # Cumulative time (in ticks) in various power states
system.cpu.numCycles                           214900                       # number of cpu cycles simulated
system.cpu.numWorkItemsStarted                      0                       # number of work items this cpu started
system.cpu.numWorkItemsCompleted                    0                       # number of work items this cpu completed
system.cpu.committedInsts                        8735                       # Number of instructions committed
system.cpu.committedOps                          8735                       # Number of ops (including micro ops) committed
system.cpu.num_int_alu_accesses                  8635                       # Number of integer alu accesses
system.cpu.num_fp_alu_accesses                     16                       # Number of float alu accesses
system.cpu.num_vec_alu_accesses                     0                       # Number of vector alu accesses
system.cpu.num_func_calls                         251                       # number of times a function call or return occured
system.cpu.num_conditional_control_insts          899                       # number of instructions that are conditional controls
system.cpu.num_int_insts                         8635                       # number of integer instructions
system.cpu.num_fp_insts                            16                       # number of float instructions
system.cpu.num_vec_insts                            0                       # number of vector instructions
system.cpu.num_int_register_reads               11747                       # number of times the integer registers were read
system.cpu.num_int_register_writes               6376                       # number of times the integer registers were written
system.cpu.num_fp_register_reads                   14                       # number of times the floating registers were read
system.cpu.num_fp_register_writes                   2                       # number of times the floating registers were written
system.cpu.num_vec_register_reads                   0                       # number of times the vector registers were read
system.cpu.num_vec_register_writes                  0                       # number of times the vector registers were written
system.cpu.num_mem_refs                          2927                       # number of memory refs
system.cpu.num_load_insts                        1716                       # Number of load instructions
system.cpu.num_store_insts                       1211                       # Number of store instructions
system.cpu.num_idle_cycles                          0                       # Number of idle cycles
system.cpu.num_busy_cycles                     214900                       # Number of busy cycles
system.cpu.not_idle_fraction                        1                       # Percentage of non-idle cycles
system.cpu.idle_fraction                            0                       # Percentage of idle cycles
system.cpu.Branches                              1237                       # Number of branches fetched
system.cpu.op_class::No_OpClass                    32      0.37%      0.37% # Class of executed instruction
system.cpu.op_class::IntAlu                      5785     66.14%     66.50% # Class of executed instruction
system.cpu.op_class::IntMult                        1      0.01%     66.51% # Class of executed instruction
system.cpu.op_class::IntDiv                         0      0.00%     66.51% # Class of executed instruction
system.cpu.op_class::FloatAdd                       2      0.02%     66.54% # Class of executed instruction
system.cpu.op_class::FloatCmp                       0      0.00%     66.54% # Class of executed instruction
system.cpu.op_class::FloatCvt                       0      0.00%     66.54% # Class of executed instruction
system.cpu.op_class::FloatMult                      0      0.00%     66.54% # Class of executed instruction
system.cpu.op_class::FloatMultAcc                   0      0.00%     66.54% # Class of executed instruction
system.cpu.op_class::FloatDiv                       0      0.00%     66.54% # Class of executed instruction
system.cpu.op_class::FloatMisc                      0      0.00%     66.54% # Class of executed instruction
system.cpu.op_class::FloatSqrt                      0      0.00%     66.54% # Class of executed instruction
system.cpu.op_class::SimdAdd                        0      0.00%     66.54% # Class of executed instruction
system.cpu.op_class::SimdAddAcc                     0      0.00%     66.54% # Class of executed instruction
system.cpu.op_class::SimdAlu                        0      0.00%     66.54% # Class of executed instruction
system.cpu.op_class::SimdCmp                        0      0.00%     66.54% # Class of executed instruction
system.cpu.op_class::SimdCvt                        0      0.00%     66.54% # Class of executed instruction
system.cpu.op_class::SimdMisc                       0      0.00%     66.54% # Class of executed instruction
system.cpu.op_class::SimdMult                       0      0.00%     66.54% # Class of executed instruction
system.cpu.op_class::SimdMultAcc                    0      0.00%     66.54% # Class of executed instruction
system.cpu.op_class::SimdShift                      0      0.00%     66.54% # Class of executed instruction
system.cpu.op_class::SimdShiftAcc                   0      0.00%     66.54% # Class of executed instruction
system.cpu.op_class::SimdSqrt                       0      0.00%     66.54% # Class of executed instruction
system.cpu.op_class::SimdFloatAdd                   0      0.00%     66.54% # Class of executed instruction
system.cpu.op_class::SimdFloatAlu                   0      0.00%     66.54% # Class of executed instruction
system.cpu.op_class::SimdFloatCmp                   0      0.00%     66.54% # Class of executed instruction
system.cpu.op_class::SimdFloatCvt                   0      0.00%     66.54% # Class of executed instruction
system.cpu.op_class::SimdFloatDiv                   0      0.00%     66.54% # Class of executed instruction
system.cpu.op_class::SimdFloatMisc                  0      0.00%     66.54% # Class of executed instruction
system.cpu.op_class::SimdFloatMult                  0      0.00%     66.54% # Class of executed instruction
system.cpu.op_class::SimdFloatMultAcc               0      0.00%     66.54% # Class of executed instruction
system.cpu.op_class::SimdFloatSqrt                  0      0.00%     66.54% # Class of executed instruction
system.cpu.op_class::MemRead                     1715     19.61%     86.14% # Class of executed instruction
system.cpu.op_class::MemWrite                    1198     13.70%     99.84% # Class of executed instruction
system.cpu.op_class::FloatMemRead                   1      0.01%     99.85% # Class of executed instruction
system.cpu.op_class::FloatMemWrite                 13      0.15%    100.00% # Class of executed instruction
system.cpu.op_class::IprAccess                      0      0.00%    100.00% # Class of executed instruction
system.cpu.op_class::InstPrefetch                   0      0.00%    100.00% # Class of executed instruction
system.cpu.op_class::total                       8747                       # Class of executed instruction
system.membus.snoop_filter.tot_requests             0                       # Total number of requests made to the snoop filter.
system.membus.snoop_filter.hit_single_requests            0                       # Number of requests hitting in the snoop filter with a single holder of the requested data.
system.membus.snoop_filter.hit_multi_requests            0                       # Number of requests hitting in the snoop filter with multiple (>1) holders of the requested data.
system.membus.snoop_filter.tot_snoops               0                       # Total number of snoops made to the snoop filter.
system.membus.snoop_filter.hit_single_snoops            0                       # Number of snoops hitting in the snoop filter with a single holder of the requested data.
system.membus.snoop_filter.hit_multi_snoops            0                       # Number of snoops hitting in the snoop filter with multiple (>1) holders of the requested data.
system.membus.pwrStateResidencyTicks::UNDEFINED    214900000                       # Cumulative time (in ticks) in various power states
system.membus.trans_dist::ReadReq                6263                       # Transaction distribution
system.membus.trans_dist::ReadResp               6263                       # Transaction distribution
system.membus.trans_dist::WritebackDirty         6247                       # Transaction distribution
system.membus.pkt_count_system.cache.mem_side::system.mem_ctrl.port        18773                       # Packet count per connected master and slave (bytes)
system.membus.pkt_count::total                  18773                       # Packet count per connected master and slave (bytes)
system.membus.pkt_size_system.cache.mem_side::system.mem_ctrl.port       800640                       # Cumulative packet size per connected master and slave (bytes)
system.membus.pkt_size::total                  800640                       # Cumulative packet size per connected master and slave (bytes)
system.membus.snoops                                0                       # Total snoops (count)
system.membus.snoopTraffic                          0                       # Total snoop traffic (bytes)
system.membus.snoop_fanout::samples              6263                       # Request fanout histogram
system.membus.snoop_fanout::mean                    0                       # Request fanout histogram
system.membus.snoop_fanout::stdev                   0                       # Request fanout histogram
system.membus.snoop_fanout::underflows              0      0.00%      0.00% # Request fanout histogram
system.membus.snoop_fanout::0                    6263    100.00%    100.00% # Request fanout histogram
system.membus.snoop_fanout::overflows               0      0.00%    100.00% # Request fanout histogram
system.membus.snoop_fanout::min_value               0                       # Request fanout histogram
system.membus.snoop_fanout::max_value               0                       # Request fanout histogram
system.membus.snoop_fanout::total                6263                       # Request fanout histogram
system.membus.reqLayer0.occupancy            37498000                       # Layer occupancy (ticks)
system.membus.reqLayer0.utilization              17.4                       # Layer utilization (%)
system.membus.respLayer0.occupancy           31707750                       # Layer occupancy (ticks)
system.membus.respLayer0.utilization             14.8                       # Layer utilization (%)

---------- End Simulation Statistics   ----------
