
---------- Begin Simulation Statistics ----------
sim_seconds                                  0.066390                       # Number of seconds simulated
sim_ticks                                 66390074000                       # Number of ticks simulated
final_tick                                66390074000                       # Number of ticks from beginning of simulation (restored from checkpoints and never reset)
sim_freq                                 1000000000000                       # Frequency of simulated ticks
host_inst_rate                                1367236                       # Simulator instruction rate (inst/s)
host_op_rate                                  1367235                       # Simulator op (including micro ops) rate (op/s)
host_tick_rate                             2062551183                       # Simulator tick rate (ticks/s)
host_mem_usage                                8488444                       # Number of bytes of host memory used
host_seconds                                    32.19                       # Real time elapsed on the host
sim_insts                                    44008983                       # Number of instructions simulated
sim_ops                                      44008983                       # Number of ops (including micro ops) simulated
system.clk_domain.voltage_domain.voltage            1                       # Voltage in Volts
system.clk_domain.clock                          1000                       # Clock period in ticks
system.mem_ctrl.pwrStateResidencyTicks::UNDEFINED  66390074000                       # Cumulative time (in ticks) in various power states
system.mem_ctrl.bytes_read::cpu.inst           151808                       # Number of bytes read from this memory
system.mem_ctrl.bytes_read::cpu.data          8139776                       # Number of bytes read from this memory
system.mem_ctrl.bytes_read::total             8291584                       # Number of bytes read from this memory
system.mem_ctrl.bytes_inst_read::cpu.inst       151808                       # Number of instructions bytes read from this memory
system.mem_ctrl.bytes_inst_read::total         151808                       # Number of instructions bytes read from this memory
system.mem_ctrl.bytes_written::writebacks      8283392                       # Number of bytes written to this memory
system.mem_ctrl.bytes_written::total          8283392                       # Number of bytes written to this memory
system.mem_ctrl.num_reads::cpu.inst              2372                       # Number of read requests responded to by this memory
system.mem_ctrl.num_reads::cpu.data            127184                       # Number of read requests responded to by this memory
system.mem_ctrl.num_reads::total               129556                       # Number of read requests responded to by this memory
system.mem_ctrl.num_writes::writebacks         129428                       # Number of write requests responded to by this memory
system.mem_ctrl.num_writes::total              129428                       # Number of write requests responded to by this memory
system.mem_ctrl.bw_read::cpu.inst             2286607                       # Total read bandwidth from this memory (bytes/s)
system.mem_ctrl.bw_read::cpu.data           122605316                       # Total read bandwidth from this memory (bytes/s)
system.mem_ctrl.bw_read::total              124891923                       # Total read bandwidth from this memory (bytes/s)
system.mem_ctrl.bw_inst_read::cpu.inst        2286607                       # Instruction read bandwidth from this memory (bytes/s)
system.mem_ctrl.bw_inst_read::total           2286607                       # Instruction read bandwidth from this memory (bytes/s)
system.mem_ctrl.bw_write::writebacks        124768531                       # Write bandwidth from this memory (bytes/s)
system.mem_ctrl.bw_write::total             124768531                       # Write bandwidth from this memory (bytes/s)
system.mem_ctrl.bw_total::writebacks        124768531                       # Total bandwidth to/from this memory (bytes/s)
system.mem_ctrl.bw_total::cpu.inst            2286607                       # Total bandwidth to/from this memory (bytes/s)
system.mem_ctrl.bw_total::cpu.data          122605316                       # Total bandwidth to/from this memory (bytes/s)
system.mem_ctrl.bw_total::total             249660454                       # Total bandwidth to/from this memory (bytes/s)
system.mem_ctrl.readReqs                       129556                       # Number of read requests accepted
system.mem_ctrl.writeReqs                      129428                       # Number of write requests accepted
system.mem_ctrl.readBursts                     129556                       # Number of DRAM read bursts, including those serviced by the write queue
system.mem_ctrl.writeBursts                    129428                       # Number of DRAM write bursts, including those merged in the write queue
system.mem_ctrl.bytesReadDRAM                 8073600                       # Total number of bytes read from DRAM
system.mem_ctrl.bytesReadWrQ                   217984                       # Total number of bytes read from write queue
system.mem_ctrl.bytesWritten                  8219072                       # Total number of bytes written to DRAM
system.mem_ctrl.bytesReadSys                  8291584                       # Total read bytes from the system interface side
system.mem_ctrl.bytesWrittenSys               8283392                       # Total written bytes from the system interface side
system.mem_ctrl.servicedByWrQ                    3406                       # Number of DRAM read bursts serviced by the write queue
system.mem_ctrl.mergedWrBursts                    979                       # Number of DRAM write bursts merged with an existing one
system.mem_ctrl.neitherReadNorWriteReqs             0                       # Number of requests that are neither read nor write
system.mem_ctrl.perBankRdBursts::0               8047                       # Per bank write bursts
system.mem_ctrl.perBankRdBursts::1               7989                       # Per bank write bursts
system.mem_ctrl.perBankRdBursts::2               7966                       # Per bank write bursts
system.mem_ctrl.perBankRdBursts::3               7810                       # Per bank write bursts
system.mem_ctrl.perBankRdBursts::4               7785                       # Per bank write bursts
system.mem_ctrl.perBankRdBursts::5               7741                       # Per bank write bursts
system.mem_ctrl.perBankRdBursts::6               7745                       # Per bank write bursts
system.mem_ctrl.perBankRdBursts::7               7714                       # Per bank write bursts
system.mem_ctrl.perBankRdBursts::8               7713                       # Per bank write bursts
system.mem_ctrl.perBankRdBursts::9               7977                       # Per bank write bursts
system.mem_ctrl.perBankRdBursts::10              7716                       # Per bank write bursts
system.mem_ctrl.perBankRdBursts::11              7979                       # Per bank write bursts
system.mem_ctrl.perBankRdBursts::12              7973                       # Per bank write bursts
system.mem_ctrl.perBankRdBursts::13              7993                       # Per bank write bursts
system.mem_ctrl.perBankRdBursts::14              8016                       # Per bank write bursts
system.mem_ctrl.perBankRdBursts::15              7986                       # Per bank write bursts
system.mem_ctrl.perBankWrBursts::0               9355                       # Per bank write bursts
system.mem_ctrl.perBankWrBursts::1               8029                       # Per bank write bursts
system.mem_ctrl.perBankWrBursts::2               8501                       # Per bank write bursts
system.mem_ctrl.perBankWrBursts::3               7831                       # Per bank write bursts
system.mem_ctrl.perBankWrBursts::4               7826                       # Per bank write bursts
system.mem_ctrl.perBankWrBursts::5               7771                       # Per bank write bursts
system.mem_ctrl.perBankWrBursts::6               7777                       # Per bank write bursts
system.mem_ctrl.perBankWrBursts::7               7745                       # Per bank write bursts
system.mem_ctrl.perBankWrBursts::8               7756                       # Per bank write bursts
system.mem_ctrl.perBankWrBursts::9               8005                       # Per bank write bursts
system.mem_ctrl.perBankWrBursts::10              7741                       # Per bank write bursts
system.mem_ctrl.perBankWrBursts::11              8000                       # Per bank write bursts
system.mem_ctrl.perBankWrBursts::12              8011                       # Per bank write bursts
system.mem_ctrl.perBankWrBursts::13              8032                       # Per bank write bursts
system.mem_ctrl.perBankWrBursts::14              8021                       # Per bank write bursts
system.mem_ctrl.perBankWrBursts::15              8022                       # Per bank write bursts
system.mem_ctrl.numRdRetry                          0                       # Number of times read queue was full causing retry
system.mem_ctrl.numWrRetry                          0                       # Number of times write queue was full causing retry
system.mem_ctrl.totGap                    66390061000                       # Total gap between requests
system.mem_ctrl.readPktSize::0                      0                       # Read request sizes (log2)
system.mem_ctrl.readPktSize::1                      0                       # Read request sizes (log2)
system.mem_ctrl.readPktSize::2                      0                       # Read request sizes (log2)
system.mem_ctrl.readPktSize::3                      0                       # Read request sizes (log2)
system.mem_ctrl.readPktSize::4                      0                       # Read request sizes (log2)
system.mem_ctrl.readPktSize::5                      0                       # Read request sizes (log2)
system.mem_ctrl.readPktSize::6                 129556                       # Read request sizes (log2)
system.mem_ctrl.writePktSize::0                     0                       # Write request sizes (log2)
system.mem_ctrl.writePktSize::1                     0                       # Write request sizes (log2)
system.mem_ctrl.writePktSize::2                     0                       # Write request sizes (log2)
system.mem_ctrl.writePktSize::3                     0                       # Write request sizes (log2)
system.mem_ctrl.writePktSize::4                     0                       # Write request sizes (log2)
system.mem_ctrl.writePktSize::5                     0                       # Write request sizes (log2)
system.mem_ctrl.writePktSize::6                129428                       # Write request sizes (log2)
system.mem_ctrl.rdQLenPdf::0                   126150                       # What read queue length does an incoming req see
system.mem_ctrl.rdQLenPdf::1                        0                       # What read queue length does an incoming req see
system.mem_ctrl.rdQLenPdf::2                        0                       # What read queue length does an incoming req see
system.mem_ctrl.rdQLenPdf::3                        0                       # What read queue length does an incoming req see
system.mem_ctrl.rdQLenPdf::4                        0                       # What read queue length does an incoming req see
system.mem_ctrl.rdQLenPdf::5                        0                       # What read queue length does an incoming req see
system.mem_ctrl.rdQLenPdf::6                        0                       # What read queue length does an incoming req see
system.mem_ctrl.rdQLenPdf::7                        0                       # What read queue length does an incoming req see
system.mem_ctrl.rdQLenPdf::8                        0                       # What read queue length does an incoming req see
system.mem_ctrl.rdQLenPdf::9                        0                       # What read queue length does an incoming req see
system.mem_ctrl.rdQLenPdf::10                       0                       # What read queue length does an incoming req see
system.mem_ctrl.rdQLenPdf::11                       0                       # What read queue length does an incoming req see
system.mem_ctrl.rdQLenPdf::12                       0                       # What read queue length does an incoming req see
system.mem_ctrl.rdQLenPdf::13                       0                       # What read queue length does an incoming req see
system.mem_ctrl.rdQLenPdf::14                       0                       # What read queue length does an incoming req see
system.mem_ctrl.rdQLenPdf::15                       0                       # What read queue length does an incoming req see
system.mem_ctrl.rdQLenPdf::16                       0                       # What read queue length does an incoming req see
system.mem_ctrl.rdQLenPdf::17                       0                       # What read queue length does an incoming req see
system.mem_ctrl.rdQLenPdf::18                       0                       # What read queue length does an incoming req see
system.mem_ctrl.rdQLenPdf::19                       0                       # What read queue length does an incoming req see
system.mem_ctrl.rdQLenPdf::20                       0                       # What read queue length does an incoming req see
system.mem_ctrl.rdQLenPdf::21                       0                       # What read queue length does an incoming req see
system.mem_ctrl.rdQLenPdf::22                       0                       # What read queue length does an incoming req see
system.mem_ctrl.rdQLenPdf::23                       0                       # What read queue length does an incoming req see
system.mem_ctrl.rdQLenPdf::24                       0                       # What read queue length does an incoming req see
system.mem_ctrl.rdQLenPdf::25                       0                       # What read queue length does an incoming req see
system.mem_ctrl.rdQLenPdf::26                       0                       # What read queue length does an incoming req see
system.mem_ctrl.rdQLenPdf::27                       0                       # What read queue length does an incoming req see
system.mem_ctrl.rdQLenPdf::28                       0                       # What read queue length does an incoming req see
system.mem_ctrl.rdQLenPdf::29                       0                       # What read queue length does an incoming req see
system.mem_ctrl.rdQLenPdf::30                       0                       # What read queue length does an incoming req see
system.mem_ctrl.rdQLenPdf::31                       0                       # What read queue length does an incoming req see
system.mem_ctrl.wrQLenPdf::0                        1                       # What write queue length does an incoming req see
system.mem_ctrl.wrQLenPdf::1                        1                       # What write queue length does an incoming req see
system.mem_ctrl.wrQLenPdf::2                        1                       # What write queue length does an incoming req see
system.mem_ctrl.wrQLenPdf::3                        1                       # What write queue length does an incoming req see
system.mem_ctrl.wrQLenPdf::4                        1                       # What write queue length does an incoming req see
system.mem_ctrl.wrQLenPdf::5                        1                       # What write queue length does an incoming req see
system.mem_ctrl.wrQLenPdf::6                        1                       # What write queue length does an incoming req see
system.mem_ctrl.wrQLenPdf::7                        1                       # What write queue length does an incoming req see
system.mem_ctrl.wrQLenPdf::8                        1                       # What write queue length does an incoming req see
system.mem_ctrl.wrQLenPdf::9                        1                       # What write queue length does an incoming req see
system.mem_ctrl.wrQLenPdf::10                       1                       # What write queue length does an incoming req see
system.mem_ctrl.wrQLenPdf::11                       1                       # What write queue length does an incoming req see
system.mem_ctrl.wrQLenPdf::12                       1                       # What write queue length does an incoming req see
system.mem_ctrl.wrQLenPdf::13                       1                       # What write queue length does an incoming req see
system.mem_ctrl.wrQLenPdf::14                       1                       # What write queue length does an incoming req see
system.mem_ctrl.wrQLenPdf::15                    7035                       # What write queue length does an incoming req see
system.mem_ctrl.wrQLenPdf::16                    7043                       # What write queue length does an incoming req see
system.mem_ctrl.wrQLenPdf::17                    7138                       # What write queue length does an incoming req see
system.mem_ctrl.wrQLenPdf::18                    7139                       # What write queue length does an incoming req see
system.mem_ctrl.wrQLenPdf::19                    7140                       # What write queue length does an incoming req see
system.mem_ctrl.wrQLenPdf::20                    7139                       # What write queue length does an incoming req see
system.mem_ctrl.wrQLenPdf::21                    7139                       # What write queue length does an incoming req see
system.mem_ctrl.wrQLenPdf::22                    7149                       # What write queue length does an incoming req see
system.mem_ctrl.wrQLenPdf::23                    7236                       # What write queue length does an incoming req see
system.mem_ctrl.wrQLenPdf::24                    7150                       # What write queue length does an incoming req see
system.mem_ctrl.wrQLenPdf::25                    7152                       # What write queue length does an incoming req see
system.mem_ctrl.wrQLenPdf::26                    7146                       # What write queue length does an incoming req see
system.mem_ctrl.wrQLenPdf::27                    7138                       # What write queue length does an incoming req see
system.mem_ctrl.wrQLenPdf::28                    7138                       # What write queue length does an incoming req see
system.mem_ctrl.wrQLenPdf::29                    7138                       # What write queue length does an incoming req see
system.mem_ctrl.wrQLenPdf::30                    7138                       # What write queue length does an incoming req see
system.mem_ctrl.wrQLenPdf::31                    7138                       # What write queue length does an incoming req see
system.mem_ctrl.wrQLenPdf::32                    7138                       # What write queue length does an incoming req see
system.mem_ctrl.wrQLenPdf::33                       0                       # What write queue length does an incoming req see
system.mem_ctrl.wrQLenPdf::34                       0                       # What write queue length does an incoming req see
system.mem_ctrl.wrQLenPdf::35                       0                       # What write queue length does an incoming req see
system.mem_ctrl.wrQLenPdf::36                       0                       # What write queue length does an incoming req see
system.mem_ctrl.wrQLenPdf::37                       0                       # What write queue length does an incoming req see
system.mem_ctrl.wrQLenPdf::38                       0                       # What write queue length does an incoming req see
system.mem_ctrl.wrQLenPdf::39                       0                       # What write queue length does an incoming req see
system.mem_ctrl.wrQLenPdf::40                       0                       # What write queue length does an incoming req see
system.mem_ctrl.wrQLenPdf::41                       0                       # What write queue length does an incoming req see
system.mem_ctrl.wrQLenPdf::42                       0                       # What write queue length does an incoming req see
system.mem_ctrl.wrQLenPdf::43                       0                       # What write queue length does an incoming req see
system.mem_ctrl.wrQLenPdf::44                       0                       # What write queue length does an incoming req see
system.mem_ctrl.wrQLenPdf::45                       0                       # What write queue length does an incoming req see
system.mem_ctrl.wrQLenPdf::46                       0                       # What write queue length does an incoming req see
system.mem_ctrl.wrQLenPdf::47                       0                       # What write queue length does an incoming req see
system.mem_ctrl.wrQLenPdf::48                       0                       # What write queue length does an incoming req see
system.mem_ctrl.wrQLenPdf::49                       0                       # What write queue length does an incoming req see
system.mem_ctrl.wrQLenPdf::50                       0                       # What write queue length does an incoming req see
system.mem_ctrl.wrQLenPdf::51                       0                       # What write queue length does an incoming req see
system.mem_ctrl.wrQLenPdf::52                       0                       # What write queue length does an incoming req see
system.mem_ctrl.wrQLenPdf::53                       0                       # What write queue length does an incoming req see
system.mem_ctrl.wrQLenPdf::54                       0                       # What write queue length does an incoming req see
system.mem_ctrl.wrQLenPdf::55                       0                       # What write queue length does an incoming req see
system.mem_ctrl.wrQLenPdf::56                       0                       # What write queue length does an incoming req see
system.mem_ctrl.wrQLenPdf::57                       0                       # What write queue length does an incoming req see
system.mem_ctrl.wrQLenPdf::58                       0                       # What write queue length does an incoming req see
system.mem_ctrl.wrQLenPdf::59                       0                       # What write queue length does an incoming req see
system.mem_ctrl.wrQLenPdf::60                       0                       # What write queue length does an incoming req see
system.mem_ctrl.wrQLenPdf::61                       0                       # What write queue length does an incoming req see
system.mem_ctrl.wrQLenPdf::62                       0                       # What write queue length does an incoming req see
system.mem_ctrl.wrQLenPdf::63                       0                       # What write queue length does an incoming req see
system.mem_ctrl.bytesPerActivate::samples        33397                       # Bytes accessed per row activation
system.mem_ctrl.bytesPerActivate::mean     487.752553                       # Bytes accessed per row activation
system.mem_ctrl.bytesPerActivate::gmean    320.044926                       # Bytes accessed per row activation
system.mem_ctrl.bytesPerActivate::stdev    365.697780                       # Bytes accessed per row activation
system.mem_ctrl.bytesPerActivate::0-127          6684     20.01%     20.01% # Bytes accessed per row activation
system.mem_ctrl.bytesPerActivate::128-255         5214     15.61%     35.63% # Bytes accessed per row activation
system.mem_ctrl.bytesPerActivate::256-383         3671     10.99%     46.62% # Bytes accessed per row activation
system.mem_ctrl.bytesPerActivate::384-511         2762      8.27%     54.89% # Bytes accessed per row activation
system.mem_ctrl.bytesPerActivate::512-639         2027      6.07%     60.96% # Bytes accessed per row activation
system.mem_ctrl.bytesPerActivate::640-767         2370      7.10%     68.05% # Bytes accessed per row activation
system.mem_ctrl.bytesPerActivate::768-895         2719      8.14%     76.20% # Bytes accessed per row activation
system.mem_ctrl.bytesPerActivate::896-1023         1259      3.77%     79.97% # Bytes accessed per row activation
system.mem_ctrl.bytesPerActivate::1024-1151         6691     20.03%    100.00% # Bytes accessed per row activation
system.mem_ctrl.bytesPerActivate::total         33397                       # Bytes accessed per row activation
system.mem_ctrl.rdPerTurnAround::samples         7138                       # Reads before turning the bus around for writes
system.mem_ctrl.rdPerTurnAround::mean       17.671757                       # Reads before turning the bus around for writes
system.mem_ctrl.rdPerTurnAround::gmean      17.644919                       # Reads before turning the bus around for writes
system.mem_ctrl.rdPerTurnAround::stdev       1.811486                       # Reads before turning the bus around for writes
system.mem_ctrl.rdPerTurnAround::8-15              57      0.80%      0.80% # Reads before turning the bus around for writes
system.mem_ctrl.rdPerTurnAround::16-23           7080     99.19%     99.99% # Reads before turning the bus around for writes
system.mem_ctrl.rdPerTurnAround::160-167            1      0.01%    100.00% # Reads before turning the bus around for writes
system.mem_ctrl.rdPerTurnAround::total           7138                       # Reads before turning the bus around for writes
system.mem_ctrl.wrPerTurnAround::samples         7138                       # Writes before turning the bus around for reads
system.mem_ctrl.wrPerTurnAround::mean       17.991454                       # Writes before turning the bus around for reads
system.mem_ctrl.wrPerTurnAround::gmean      17.989306                       # Writes before turning the bus around for reads
system.mem_ctrl.wrPerTurnAround::stdev       0.271602                       # Writes before turning the bus around for reads
system.mem_ctrl.wrPerTurnAround::16                95      1.33%      1.33% # Writes before turning the bus around for reads
system.mem_ctrl.wrPerTurnAround::17                 8      0.11%      1.44% # Writes before turning the bus around for reads
system.mem_ctrl.wrPerTurnAround::18              6899     96.65%     98.09% # Writes before turning the bus around for reads
system.mem_ctrl.wrPerTurnAround::19               135      1.89%     99.99% # Writes before turning the bus around for reads
system.mem_ctrl.wrPerTurnAround::20                 1      0.01%    100.00% # Writes before turning the bus around for reads
system.mem_ctrl.wrPerTurnAround::total           7138                       # Writes before turning the bus around for reads
system.mem_ctrl.totQLat                    2117426500                       # Total ticks spent queuing
system.mem_ctrl.totMemAccLat               4482739000                       # Total ticks spent from burst creation until serviced by the DRAM
system.mem_ctrl.totBusLat                   630750000                       # Total ticks spent in databus transfers
system.mem_ctrl.avgQLat                      16784.99                       # Average queueing delay per DRAM burst
system.mem_ctrl.avgBusLat                     5000.00                       # Average bus latency per DRAM burst
system.mem_ctrl.avgMemAccLat                 35534.99                       # Average memory access latency per DRAM burst
system.mem_ctrl.avgRdBW                        121.61                       # Average DRAM read bandwidth in MiByte/s
system.mem_ctrl.avgWrBW                        123.80                       # Average achieved write bandwidth in MiByte/s
system.mem_ctrl.avgRdBWSys                     124.89                       # Average system read bandwidth in MiByte/s
system.mem_ctrl.avgWrBWSys                     124.77                       # Average system write bandwidth in MiByte/s
system.mem_ctrl.peakBW                       12800.00                       # Theoretical peak bandwidth in MiByte/s
system.mem_ctrl.busUtil                          1.92                       # Data bus utilization in percentage
system.mem_ctrl.busUtilRead                      0.95                       # Data bus utilization in percentage for reads
system.mem_ctrl.busUtilWrite                     0.97                       # Data bus utilization in percentage for writes
system.mem_ctrl.avgRdQLen                        1.00                       # Average read queue length when enqueuing
system.mem_ctrl.avgWrQLen                       24.50                       # Average write queue length when enqueuing
system.mem_ctrl.readRowHits                    111655                       # Number of row buffer hits during reads
system.mem_ctrl.writeRowHits                   109511                       # Number of row buffer hits during writes
system.mem_ctrl.readRowHitRate                  88.51                       # Row buffer hit rate for reads
system.mem_ctrl.writeRowHitRate                 85.26                       # Row buffer hit rate for writes
system.mem_ctrl.avgGap                      256348.12                       # Average gap between requests
system.mem_ctrl.pageHitRate                     86.87                       # Row buffer hit rate, read and write combined
system.mem_ctrl_0.actEnergy                 124871460                       # Energy for activate commands per rank (pJ)
system.mem_ctrl_0.preEnergy                  66344190                       # Energy for precharge commands per rank (pJ)
system.mem_ctrl_0.readEnergy                448370580                       # Energy for read commands per rank (pJ)
system.mem_ctrl_0.writeEnergy               338438700                       # Energy for write commands per rank (pJ)
system.mem_ctrl_0.refreshEnergy          5703859200.000001                       # Energy for refresh commands per rank (pJ)
system.mem_ctrl_0.actBackEnergy            4889879520                       # Energy for active background per rank (pJ)
system.mem_ctrl_0.preBackEnergy             309095040                       # Energy for precharge background per rank (pJ)
system.mem_ctrl_0.actPowerDownEnergy      12639757410                       # Energy for active power-down per rank (pJ)
system.mem_ctrl_0.prePowerDownEnergy       7440427680                       # Energy for precharge power-down per rank (pJ)
system.mem_ctrl_0.selfRefreshEnergy        2904209535                       # Energy for self refresh per rank (pJ)
system.mem_ctrl_0.totalEnergy             34869620715                       # Total energy per rank (pJ)
system.mem_ctrl_0.averagePower             525.223397                       # Core power per rank (mW)
system.mem_ctrl_0.totalIdleTime           54852233000                       # Total Idle time Per DRAM Rank
system.mem_ctrl_0.memoryStateTime::IDLE     592459750                       # Time in different power states
system.mem_ctrl_0.memoryStateTime::REF     2424206000                       # Time in different power states
system.mem_ctrl_0.memoryStateTime::SREF    7757095750                       # Time in different power states
system.mem_ctrl_0.memoryStateTime::PRE_PDN  19376122750                       # Time in different power states
system.mem_ctrl_0.memoryStateTime::ACT     8521132500                       # Time in different power states
system.mem_ctrl_0.memoryStateTime::ACT_PDN  27719057250                       # Time in different power states
system.mem_ctrl_1.actEnergy                 113654520                       # Energy for activate commands per rank (pJ)
system.mem_ctrl_1.preEnergy                  60397425                       # Energy for precharge commands per rank (pJ)
system.mem_ctrl_1.readEnergy                452340420                       # Energy for read commands per rank (pJ)
system.mem_ctrl_1.writeEnergy               331929360                       # Energy for write commands per rank (pJ)
system.mem_ctrl_1.refreshEnergy          5480130240.000001                       # Energy for refresh commands per rank (pJ)
system.mem_ctrl_1.actBackEnergy            4646507190                       # Energy for active background per rank (pJ)
system.mem_ctrl_1.preBackEnergy             276555360                       # Energy for precharge background per rank (pJ)
system.mem_ctrl_1.actPowerDownEnergy      12817210380                       # Energy for active power-down per rank (pJ)
system.mem_ctrl_1.prePowerDownEnergy       6790125600                       # Energy for precharge power-down per rank (pJ)
system.mem_ctrl_1.selfRefreshEnergy        3295834950                       # Energy for self refresh per rank (pJ)
system.mem_ctrl_1.totalEnergy             34268163735                       # Total energy per rank (pJ)
system.mem_ctrl_1.averagePower             516.163956                       # Core power per rank (mW)
system.mem_ctrl_1.totalIdleTime           55472459750                       # Total Idle time Per DRAM Rank
system.mem_ctrl_1.memoryStateTime::IDLE     512001750                       # Time in different power states
system.mem_ctrl_1.memoryStateTime::REF     2328876000                       # Time in different power states
system.mem_ctrl_1.memoryStateTime::SREF    9681898500                       # Time in different power states
system.mem_ctrl_1.memoryStateTime::PRE_PDN  17682660750                       # Time in different power states
system.mem_ctrl_1.memoryStateTime::ACT     8076736500                       # Time in different power states
system.mem_ctrl_1.memoryStateTime::ACT_PDN  28107900500                       # Time in different power states
system.pwrStateResidencyTicks::UNDEFINED  66390074000                       # Cumulative time (in ticks) in various power states
system.cache.pwrStateResidencyTicks::UNDEFINED  66390074000                       # Cumulative time (in ticks) in various power states
system.cache.hits                            57883633                       # Number of hits
system.cache.misses                            129556                       # Number of misses
system.cache.missLatency::samples              129556                       # Ticks for misses to the cache
system.cache.missLatency::mean           64658.410263                       # Ticks for misses to the cache
system.cache.missLatency::gmean          58016.599162                       # Ticks for misses to the cache
system.cache.missLatency::stdev          50396.647230                       # Ticks for misses to the cache
system.cache.missLatency::0-65535              118736     91.65%     91.65% # Ticks for misses to the cache
system.cache.missLatency::65536-131071           5520      4.26%     95.91% # Ticks for misses to the cache
system.cache.missLatency::131072-196607          1082      0.84%     96.74% # Ticks for misses to the cache
system.cache.missLatency::196608-262143            91      0.07%     96.81% # Ticks for misses to the cache
system.cache.missLatency::262144-327679          1776      1.37%     98.19% # Ticks for misses to the cache
system.cache.missLatency::327680-393215          2286      1.76%     99.95% # Ticks for misses to the cache
system.cache.missLatency::393216-458751             0      0.00%     99.95% # Ticks for misses to the cache
system.cache.missLatency::458752-524287             1      0.00%     99.95% # Ticks for misses to the cache
system.cache.missLatency::524288-589823             0      0.00%     99.95% # Ticks for misses to the cache
system.cache.missLatency::589824-655359            64      0.05%    100.00% # Ticks for misses to the cache
system.cache.missLatency::655360-720895             0      0.00%    100.00% # Ticks for misses to the cache
system.cache.missLatency::720896-786431             0      0.00%    100.00% # Ticks for misses to the cache
system.cache.missLatency::786432-851967             0      0.00%    100.00% # Ticks for misses to the cache
system.cache.missLatency::851968-917503             0      0.00%    100.00% # Ticks for misses to the cache
system.cache.missLatency::917504-983039             0      0.00%    100.00% # Ticks for misses to the cache
system.cache.missLatency::983040-1.04858e+06            0      0.00%    100.00% # Ticks for misses to the cache
system.cache.missLatency::total                129556                       # Ticks for misses to the cache
system.cache.hitRatio                        0.997767                       # The ratio of hits to the total accesses to the cache
system.cpu.dtb.fetch_hits                           0                       # ITB hits
system.cpu.dtb.fetch_misses                         0                       # ITB misses
system.cpu.dtb.fetch_acv                            0                       # ITB acv
system.cpu.dtb.fetch_accesses                       0                       # ITB accesses
system.cpu.dtb.read_hits                     10001315                       # DTB read hits
system.cpu.dtb.read_misses                        516                       # DTB read misses
system.cpu.dtb.read_acv                             0                       # DTB read access violations
system.cpu.dtb.read_accesses                 10001831                       # DTB read accesses
system.cpu.dtb.write_hits                     4001460                       # DTB write hits
system.cpu.dtb.write_misses                       915                       # DTB write misses
system.cpu.dtb.write_acv                            0                       # DTB write access violations
system.cpu.dtb.write_accesses                 4002375                       # DTB write accesses
system.cpu.dtb.data_hits                     14002775                       # DTB hits
system.cpu.dtb.data_misses                       1431                       # DTB misses
system.cpu.dtb.data_acv                             0                       # DTB access violations
system.cpu.dtb.data_accesses                 14004206                       # DTB accesses
system.cpu.itb.fetch_hits                    44010415                       # ITB hits
system.cpu.itb.fetch_misses                        19                       # ITB misses
system.cpu.itb.fetch_acv                            0                       # ITB acv
system.cpu.itb.fetch_accesses                44010434                       # ITB accesses
system.cpu.itb.read_hits                            0                       # DTB read hits
system.cpu.itb.read_misses                          0                       # DTB read misses
system.cpu.itb.read_acv                             0                       # DTB read access violations
system.cpu.itb.read_accesses                        0                       # DTB read accesses
system.cpu.itb.write_hits                           0                       # DTB write hits
system.cpu.itb.write_misses                         0                       # DTB write misses
system.cpu.itb.write_acv                            0                       # DTB write access violations
system.cpu.itb.write_accesses                       0                       # DTB write accesses
system.cpu.itb.data_hits                            0                       # DTB hits
system.cpu.itb.data_misses                          0                       # DTB misses
system.cpu.itb.data_acv                             0                       # DTB access violations
system.cpu.itb.data_accesses                        0                       # DTB accesses
system.cpu.workload.numSyscalls                    10                       # Number of system calls
system.cpu.pwrStateResidencyTicks::ON     66390074000                       # Cumulative time (in ticks) in various power states
system.cpu.numCycles                         66390074                       # number of cpu cycles simulated
system.cpu.numWorkItemsStarted                      0                       # number of work items this cpu started
system.cpu.numWorkItemsCompleted                    0                       # number of work items this cpu completed
system.cpu.committedInsts                    44008983                       # Number of instructions committed
system.cpu.committedOps                      44008983                       # Number of ops (including micro ops) committed
system.cpu.num_int_alu_accesses              42010330                       # Number of integer alu accesses
system.cpu.num_fp_alu_accesses                     16                       # Number of float alu accesses
system.cpu.num_vec_alu_accesses                     0                       # Number of vector alu accesses
system.cpu.num_func_calls                         231                       # number of times a function call or return occured
system.cpu.num_conditional_control_insts      2001276                       # number of instructions that are conditional controls
system.cpu.num_int_insts                     42010330                       # number of integer instructions
system.cpu.num_fp_insts                            16                       # number of float instructions
system.cpu.num_vec_insts                            0                       # number of vector instructions
system.cpu.num_int_register_reads            53014129                       # number of times the integer registers were read
system.cpu.num_int_register_writes           36006038                       # number of times the integer registers were written
system.cpu.num_fp_register_reads                   14                       # number of times the floating registers were read
system.cpu.num_fp_register_writes                   2                       # number of times the floating registers were written
system.cpu.num_vec_register_reads                   0                       # number of times the vector registers were read
system.cpu.num_vec_register_writes                  0                       # number of times the vector registers were written
system.cpu.num_mem_refs                      14004206                       # number of memory refs
system.cpu.num_load_insts                    10001831                       # Number of load instructions
system.cpu.num_store_insts                    4002375                       # Number of store instructions
system.cpu.num_idle_cycles                          0                       # Number of idle cycles
system.cpu.num_busy_cycles                   66390074                       # Number of busy cycles
system.cpu.not_idle_fraction                        1                       # Percentage of non-idle cycles
system.cpu.idle_fraction                            0                       # Percentage of idle cycles
system.cpu.Branches                           4001572                       # Number of branches fetched
system.cpu.op_class::No_OpClass                    22      0.00%      0.00% # Class of executed instruction
system.cpu.op_class::IntAlu                  30006176     68.18%     68.18% # Class of executed instruction
system.cpu.op_class::IntMult                        8      0.00%     68.18% # Class of executed instruction
system.cpu.op_class::IntDiv                         0      0.00%     68.18% # Class of executed instruction
system.cpu.op_class::FloatAdd                       2      0.00%     68.18% # Class of executed instruction
system.cpu.op_class::FloatCmp                       0      0.00%     68.18% # Class of executed instruction
system.cpu.op_class::FloatCvt                       0      0.00%     68.18% # Class of executed instruction
system.cpu.op_class::FloatMult                      0      0.00%     68.18% # Class of executed instruction
system.cpu.op_class::FloatMultAcc                   0      0.00%     68.18% # Class of executed instruction
system.cpu.op_class::FloatDiv                       0      0.00%     68.18% # Class of executed instruction
system.cpu.op_class::FloatMisc                      0      0.00%     68.18% # Class of executed instruction
system.cpu.op_class::FloatSqrt                      0      0.00%     68.18% # Class of executed instruction
system.cpu.op_class::SimdAdd                        0      0.00%     68.18% # Class of executed instruction
system.cpu.op_class::SimdAddAcc                     0      0.00%     68.18% # Class of executed instruction
system.cpu.op_class::SimdAlu                        0      0.00%     68.18% # Class of executed instruction
system.cpu.op_class::SimdCmp                        0      0.00%     68.18% # Class of executed instruction
system.cpu.op_class::SimdCvt                        0      0.00%     68.18% # Class of executed instruction
system.cpu.op_class::SimdMisc                       0      0.00%     68.18% # Class of executed instruction
system.cpu.op_class::SimdMult                       0      0.00%     68.18% # Class of executed instruction
system.cpu.op_class::SimdMultAcc                    0      0.00%     68.18% # Class of executed instruction
system.cpu.op_class::SimdShift                      0      0.00%     68.18% # Class of executed instruction
system.cpu.op_class::SimdShiftAcc                   0      0.00%     68.18% # Class of executed instruction
system.cpu.op_class::SimdSqrt                       0      0.00%     68.18% # Class of executed instruction
system.cpu.op_class::SimdFloatAdd                   0      0.00%     68.18% # Class of executed instruction
system.cpu.op_class::SimdFloatAlu                   0      0.00%     68.18% # Class of executed instruction
system.cpu.op_class::SimdFloatCmp                   0      0.00%     68.18% # Class of executed instruction
system.cpu.op_class::SimdFloatCvt                   0      0.00%     68.18% # Class of executed instruction
system.cpu.op_class::SimdFloatDiv                   0      0.00%     68.18% # Class of executed instruction
system.cpu.op_class::SimdFloatMisc                  0      0.00%     68.18% # Class of executed instruction
system.cpu.op_class::SimdFloatMult                  0      0.00%     68.18% # Class of executed instruction
system.cpu.op_class::SimdFloatMultAcc               0      0.00%     68.18% # Class of executed instruction
system.cpu.op_class::SimdFloatSqrt                  0      0.00%     68.18% # Class of executed instruction
system.cpu.op_class::MemRead                 10001830     22.73%     90.91% # Class of executed instruction
system.cpu.op_class::MemWrite                 4002362      9.09%    100.00% # Class of executed instruction
system.cpu.op_class::FloatMemRead                   1      0.00%    100.00% # Class of executed instruction
system.cpu.op_class::FloatMemWrite                 13      0.00%    100.00% # Class of executed instruction
system.cpu.op_class::IprAccess                      0      0.00%    100.00% # Class of executed instruction
system.cpu.op_class::InstPrefetch                   0      0.00%    100.00% # Class of executed instruction
system.cpu.op_class::total                   44010414                       # Class of executed instruction
system.membus.snoop_filter.tot_requests             0                       # Total number of requests made to the snoop filter.
system.membus.snoop_filter.hit_single_requests            0                       # Number of requests hitting in the snoop filter with a single holder of the requested data.
system.membus.snoop_filter.hit_multi_requests            0                       # Number of requests hitting in the snoop filter with multiple (>1) holders of the requested data.
system.membus.snoop_filter.tot_snoops               0                       # Total number of snoops made to the snoop filter.
system.membus.snoop_filter.hit_single_snoops            0                       # Number of snoops hitting in the snoop filter with a single holder of the requested data.
system.membus.snoop_filter.hit_multi_snoops            0                       # Number of snoops hitting in the snoop filter with multiple (>1) holders of the requested data.
system.membus.pwrStateResidencyTicks::UNDEFINED  66390074000                       # Cumulative time (in ticks) in various power states
system.membus.trans_dist::ReadReq              129556                       # Transaction distribution
system.membus.trans_dist::ReadResp             129556                       # Transaction distribution
system.membus.trans_dist::WritebackDirty       129428                       # Transaction distribution
system.membus.pkt_count_system.cache.mem_side::system.mem_ctrl.port       388540                       # Packet count per connected master and slave (bytes)
system.membus.pkt_count::total                 388540                       # Packet count per connected master and slave (bytes)
system.membus.pkt_size_system.cache.mem_side::system.mem_ctrl.port     16574976                       # Cumulative packet size per connected master and slave (bytes)
system.membus.pkt_size::total                16574976                       # Cumulative packet size per connected master and slave (bytes)
system.membus.snoops                                0                       # Total snoops (count)
system.membus.snoopTraffic                          0                       # Total snoop traffic (bytes)
system.membus.snoop_fanout::samples            129556                       # Request fanout histogram
system.membus.snoop_fanout::mean                    0                       # Request fanout histogram
system.membus.snoop_fanout::stdev                   0                       # Request fanout histogram
system.membus.snoop_fanout::underflows              0      0.00%      0.00% # Request fanout histogram
system.membus.snoop_fanout::0                  129556    100.00%    100.00% # Request fanout histogram
system.membus.snoop_fanout::overflows               0      0.00%    100.00% # Request fanout histogram
system.membus.snoop_fanout::min_value               0                       # Request fanout histogram
system.membus.snoop_fanout::max_value               0                       # Request fanout histogram
system.membus.snoop_fanout::total              129556                       # Request fanout histogram
system.membus.reqLayer0.occupancy           776696000                       # Layer occupancy (ticks)
system.membus.reqLayer0.utilization               1.2                       # Layer utilization (%)
system.membus.respLayer0.occupancy          682344000                       # Layer occupancy (ticks)
system.membus.respLayer0.utilization              1.0                       # Layer utilization (%)

---------- End Simulation Statistics   ----------
