
---------- Begin Simulation Statistics ----------
sim_seconds                                  0.000184                       # Number of seconds simulated
sim_ticks                                   183997000                       # Number of ticks simulated
final_tick                                  183997000                       # Number of ticks from beginning of simulation (restored from checkpoints and never reset)
sim_freq                                 1000000000000                       # Frequency of simulated ticks
host_inst_rate                                 396903                       # Simulator instruction rate (inst/s)
host_op_rate                                   396507                       # Simulator op (including micro ops) rate (op/s)
host_tick_rate                             7056723173                       # Simulator tick rate (ticks/s)
host_mem_usage                                8485376                       # Number of bytes of host memory used
host_seconds                                     0.03                       # Real time elapsed on the host
sim_insts                                       10329                       # Number of instructions simulated
sim_ops                                         10329                       # Number of ops (including micro ops) simulated
system.clk_domain.voltage_domain.voltage            1                       # Voltage in Volts
system.clk_domain.clock                          1000                       # Clock period in ticks
system.mem_ctrl.pwrStateResidencyTicks::UNDEFINED    183997000                       # Cumulative time (in ticks) in various power states
system.mem_ctrl.bytes_read::cpu.inst           207360                       # Number of bytes read from this memory
system.mem_ctrl.bytes_read::cpu.data           142080                       # Number of bytes read from this memory
system.mem_ctrl.bytes_read::total              349440                       # Number of bytes read from this memory
system.mem_ctrl.bytes_inst_read::cpu.inst       207360                       # Number of instructions bytes read from this memory
system.mem_ctrl.bytes_inst_read::total         207360                       # Number of instructions bytes read from this memory
system.mem_ctrl.bytes_written::writebacks       341248                       # Number of bytes written to this memory
system.mem_ctrl.bytes_written::total           341248                       # Number of bytes written to this memory
system.mem_ctrl.num_reads::cpu.inst              3240                       # Number of read requests responded to by this memory
system.mem_ctrl.num_reads::cpu.data              2220                       # Number of read requests responded to by this memory
system.mem_ctrl.num_reads::total                 5460                       # Number of read requests responded to by this memory
system.mem_ctrl.num_writes::writebacks           5332                       # Number of write requests responded to by this memory
system.mem_ctrl.num_writes::total                5332                       # Number of write requests responded to by this memory
system.mem_ctrl.bw_read::cpu.inst          1126974896                       # Total read bandwidth from this memory (bytes/s)
system.mem_ctrl.bw_read::cpu.data           772186503                       # Total read bandwidth from this memory (bytes/s)
system.mem_ctrl.bw_read::total             1899161399                       # Total read bandwidth from this memory (bytes/s)
system.mem_ctrl.bw_inst_read::cpu.inst     1126974896                       # Instruction read bandwidth from this memory (bytes/s)
system.mem_ctrl.bw_inst_read::total        1126974896                       # Instruction read bandwidth from this memory (bytes/s)
system.mem_ctrl.bw_write::writebacks       1854638934                       # Write bandwidth from this memory (bytes/s)
system.mem_ctrl.bw_write::total            1854638934                       # Write bandwidth from this memory (bytes/s)
system.mem_ctrl.bw_total::writebacks       1854638934                       # Total bandwidth to/from this memory (bytes/s)
system.mem_ctrl.bw_total::cpu.inst         1126974896                       # Total bandwidth to/from this memory (bytes/s)
system.mem_ctrl.bw_total::cpu.data          772186503                       # Total bandwidth to/from this memory (bytes/s)
system.mem_ctrl.bw_total::total            3753800334                       # Total bandwidth to/from this memory (bytes/s)
system.mem_ctrl.readReqs                         5460                       # Number of read requests accepted
system.mem_ctrl.writeReqs                        5332                       # Number of write requests accepted
system.mem_ctrl.readBursts                       5460                       # Number of DRAM read bursts, including those serviced by the write queue
system.mem_ctrl.writeBursts                      5332                       # Number of DRAM write bursts, including those merged in the write queue
system.mem_ctrl.bytesReadDRAM                   61440                       # Total number of bytes read from DRAM
system.mem_ctrl.bytesReadWrQ                   288000                       # Total number of bytes read from write queue
system.mem_ctrl.bytesWritten                    53632                       # Total number of bytes written to DRAM
system.mem_ctrl.bytesReadSys                   349440                       # Total read bytes from the system interface side
system.mem_ctrl.bytesWrittenSys                341248                       # Total written bytes from the system interface side
system.mem_ctrl.servicedByWrQ                    4500                       # Number of DRAM read bursts serviced by the write queue
system.mem_ctrl.mergedWrBursts                   4477                       # Number of DRAM write bursts merged with an existing one
system.mem_ctrl.neitherReadNorWriteReqs             0                       # Number of requests that are neither read nor write
system.mem_ctrl.perBankRdBursts::0                 76                       # Per bank write bursts
system.mem_ctrl.perBankRdBursts::1                  0                       # Per bank write bursts
system.mem_ctrl.perBankRdBursts::2                 86                       # Per bank write bursts
system.mem_ctrl.perBankRdBursts::3                101                       # Per bank write bursts
system.mem_ctrl.perBankRdBursts::4                 59                       # Per bank write bursts
system.mem_ctrl.perBankRdBursts::5                 35                       # Per bank write bursts
system.mem_ctrl.perBankRdBursts::6                 70                       # Per bank write bursts
system.mem_ctrl.perBankRdBursts::7                 90                       # Per bank write bursts
system.mem_ctrl.perBankRdBursts::8                 42                       # Per bank write bursts
system.mem_ctrl.perBankRdBursts::9                117                       # Per bank write bursts
system.mem_ctrl.perBankRdBursts::10               100                       # Per bank write bursts
system.mem_ctrl.perBankRdBursts::11                27                       # Per bank write bursts
system.mem_ctrl.perBankRdBursts::12                14                       # Per bank write bursts
system.mem_ctrl.perBankRdBursts::13                15                       # Per bank write bursts
system.mem_ctrl.perBankRdBursts::14                56                       # Per bank write bursts
system.mem_ctrl.perBankRdBursts::15                72                       # Per bank write bursts
system.mem_ctrl.perBankWrBursts::0                 66                       # Per bank write bursts
system.mem_ctrl.perBankWrBursts::1                  0                       # Per bank write bursts
system.mem_ctrl.perBankWrBursts::2                 55                       # Per bank write bursts
system.mem_ctrl.perBankWrBursts::3                 82                       # Per bank write bursts
system.mem_ctrl.perBankWrBursts::4                 46                       # Per bank write bursts
system.mem_ctrl.perBankWrBursts::5                 24                       # Per bank write bursts
system.mem_ctrl.perBankWrBursts::6                 72                       # Per bank write bursts
system.mem_ctrl.perBankWrBursts::7                 92                       # Per bank write bursts
system.mem_ctrl.perBankWrBursts::8                 32                       # Per bank write bursts
system.mem_ctrl.perBankWrBursts::9                112                       # Per bank write bursts
system.mem_ctrl.perBankWrBursts::10               101                       # Per bank write bursts
system.mem_ctrl.perBankWrBursts::11                24                       # Per bank write bursts
system.mem_ctrl.perBankWrBursts::12                12                       # Per bank write bursts
system.mem_ctrl.perBankWrBursts::13                13                       # Per bank write bursts
system.mem_ctrl.perBankWrBursts::14                48                       # Per bank write bursts
system.mem_ctrl.perBankWrBursts::15                59                       # Per bank write bursts
system.mem_ctrl.numRdRetry                          0                       # Number of times read queue was full causing retry
system.mem_ctrl.numWrRetry                          0                       # Number of times write queue was full causing retry
system.mem_ctrl.totGap                      183984000                       # Total gap between requests
system.mem_ctrl.readPktSize::0                      0                       # Read request sizes (log2)
system.mem_ctrl.readPktSize::1                      0                       # Read request sizes (log2)
system.mem_ctrl.readPktSize::2                      0                       # Read request sizes (log2)
system.mem_ctrl.readPktSize::3                      0                       # Read request sizes (log2)
system.mem_ctrl.readPktSize::4                      0                       # Read request sizes (log2)
system.mem_ctrl.readPktSize::5                      0                       # Read request sizes (log2)
system.mem_ctrl.readPktSize::6                   5460                       # Read request sizes (log2)
system.mem_ctrl.writePktSize::0                     0                       # Write request sizes (log2)
system.mem_ctrl.writePktSize::1                     0                       # Write request sizes (log2)
system.mem_ctrl.writePktSize::2                     0                       # Write request sizes (log2)
system.mem_ctrl.writePktSize::3                     0                       # Write request sizes (log2)
system.mem_ctrl.writePktSize::4                     0                       # Write request sizes (log2)
system.mem_ctrl.writePktSize::5                     0                       # Write request sizes (log2)
system.mem_ctrl.writePktSize::6                  5332                       # Write request sizes (log2)
system.mem_ctrl.rdQLenPdf::0                      960                       # What read queue length does an incoming req see
system.mem_ctrl.rdQLenPdf::1                        0                       # What read queue length does an incoming req see
system.mem_ctrl.rdQLenPdf::2                        0                       # What read queue length does an incoming req see
system.mem_ctrl.rdQLenPdf::3                        0                       # What read queue length does an incoming req see
system.mem_ctrl.rdQLenPdf::4                        0                       # What read queue length does an incoming req see
system.mem_ctrl.rdQLenPdf::5                        0                       # What read queue length does an incoming req see
system.mem_ctrl.rdQLenPdf::6                        0                       # What read queue length does an incoming req see
system.mem_ctrl.rdQLenPdf::7                        0                       # What read queue length does an incoming req see
system.mem_ctrl.rdQLenPdf::8                        0                       # What read queue length does an incoming req see
system.mem_ctrl.rdQLenPdf::9                        0                       # What read queue length does an incoming req see
system.mem_ctrl.rdQLenPdf::10                       0                       # What read queue length does an incoming req see
system.mem_ctrl.rdQLenPdf::11                       0                       # What read queue length does an incoming req see
system.mem_ctrl.rdQLenPdf::12                       0                       # What read queue length does an incoming req see
system.mem_ctrl.rdQLenPdf::13                       0                       # What read queue length does an incoming req see
system.mem_ctrl.rdQLenPdf::14                       0                       # What read queue length does an incoming req see
system.mem_ctrl.rdQLenPdf::15                       0                       # What read queue length does an incoming req see
system.mem_ctrl.rdQLenPdf::16                       0                       # What read queue length does an incoming req see
system.mem_ctrl.rdQLenPdf::17                       0                       # What read queue length does an incoming req see
system.mem_ctrl.rdQLenPdf::18                       0                       # What read queue length does an incoming req see
system.mem_ctrl.rdQLenPdf::19                       0                       # What read queue length does an incoming req see
system.mem_ctrl.rdQLenPdf::20                       0                       # What read queue length does an incoming req see
system.mem_ctrl.rdQLenPdf::21                       0                       # What read queue length does an incoming req see
system.mem_ctrl.rdQLenPdf::22                       0                       # What read queue length does an incoming req see
system.mem_ctrl.rdQLenPdf::23                       0                       # What read queue length does an incoming req see
system.mem_ctrl.rdQLenPdf::24                       0                       # What read queue length does an incoming req see
system.mem_ctrl.rdQLenPdf::25                       0                       # What read queue length does an incoming req see
system.mem_ctrl.rdQLenPdf::26                       0                       # What read queue length does an incoming req see
system.mem_ctrl.rdQLenPdf::27                       0                       # What read queue length does an incoming req see
system.mem_ctrl.rdQLenPdf::28                       0                       # What read queue length does an incoming req see
system.mem_ctrl.rdQLenPdf::29                       0                       # What read queue length does an incoming req see
system.mem_ctrl.rdQLenPdf::30                       0                       # What read queue length does an incoming req see
system.mem_ctrl.rdQLenPdf::31                       0                       # What read queue length does an incoming req see
system.mem_ctrl.wrQLenPdf::0                        1                       # What write queue length does an incoming req see
system.mem_ctrl.wrQLenPdf::1                        1                       # What write queue length does an incoming req see
system.mem_ctrl.wrQLenPdf::2                        1                       # What write queue length does an incoming req see
system.mem_ctrl.wrQLenPdf::3                        1                       # What write queue length does an incoming req see
system.mem_ctrl.wrQLenPdf::4                        1                       # What write queue length does an incoming req see
system.mem_ctrl.wrQLenPdf::5                        1                       # What write queue length does an incoming req see
system.mem_ctrl.wrQLenPdf::6                        1                       # What write queue length does an incoming req see
system.mem_ctrl.wrQLenPdf::7                        1                       # What write queue length does an incoming req see
system.mem_ctrl.wrQLenPdf::8                        1                       # What write queue length does an incoming req see
system.mem_ctrl.wrQLenPdf::9                        1                       # What write queue length does an incoming req see
system.mem_ctrl.wrQLenPdf::10                       1                       # What write queue length does an incoming req see
system.mem_ctrl.wrQLenPdf::11                       1                       # What write queue length does an incoming req see
system.mem_ctrl.wrQLenPdf::12                       1                       # What write queue length does an incoming req see
system.mem_ctrl.wrQLenPdf::13                       1                       # What write queue length does an incoming req see
system.mem_ctrl.wrQLenPdf::14                       1                       # What write queue length does an incoming req see
system.mem_ctrl.wrQLenPdf::15                      15                       # What write queue length does an incoming req see
system.mem_ctrl.wrQLenPdf::16                      16                       # What write queue length does an incoming req see
system.mem_ctrl.wrQLenPdf::17                      44                       # What write queue length does an incoming req see
system.mem_ctrl.wrQLenPdf::18                      51                       # What write queue length does an incoming req see
system.mem_ctrl.wrQLenPdf::19                      51                       # What write queue length does an incoming req see
system.mem_ctrl.wrQLenPdf::20                      51                       # What write queue length does an incoming req see
system.mem_ctrl.wrQLenPdf::21                      50                       # What write queue length does an incoming req see
system.mem_ctrl.wrQLenPdf::22                      51                       # What write queue length does an incoming req see
system.mem_ctrl.wrQLenPdf::23                      59                       # What write queue length does an incoming req see
system.mem_ctrl.wrQLenPdf::24                      52                       # What write queue length does an incoming req see
system.mem_ctrl.wrQLenPdf::25                      50                       # What write queue length does an incoming req see
system.mem_ctrl.wrQLenPdf::26                      50                       # What write queue length does an incoming req see
system.mem_ctrl.wrQLenPdf::27                      50                       # What write queue length does an incoming req see
system.mem_ctrl.wrQLenPdf::28                      50                       # What write queue length does an incoming req see
system.mem_ctrl.wrQLenPdf::29                      50                       # What write queue length does an incoming req see
system.mem_ctrl.wrQLenPdf::30                      50                       # What write queue length does an incoming req see
system.mem_ctrl.wrQLenPdf::31                      50                       # What write queue length does an incoming req see
system.mem_ctrl.wrQLenPdf::32                      50                       # What write queue length does an incoming req see
system.mem_ctrl.wrQLenPdf::33                       0                       # What write queue length does an incoming req see
system.mem_ctrl.wrQLenPdf::34                       0                       # What write queue length does an incoming req see
system.mem_ctrl.wrQLenPdf::35                       0                       # What write queue length does an incoming req see
system.mem_ctrl.wrQLenPdf::36                       0                       # What write queue length does an incoming req see
system.mem_ctrl.wrQLenPdf::37                       0                       # What write queue length does an incoming req see
system.mem_ctrl.wrQLenPdf::38                       0                       # What write queue length does an incoming req see
system.mem_ctrl.wrQLenPdf::39                       0                       # What write queue length does an incoming req see
system.mem_ctrl.wrQLenPdf::40                       0                       # What write queue length does an incoming req see
system.mem_ctrl.wrQLenPdf::41                       0                       # What write queue length does an incoming req see
system.mem_ctrl.wrQLenPdf::42                       0                       # What write queue length does an incoming req see
system.mem_ctrl.wrQLenPdf::43                       0                       # What write queue length does an incoming req see
system.mem_ctrl.wrQLenPdf::44                       0                       # What write queue length does an incoming req see
system.mem_ctrl.wrQLenPdf::45                       0                       # What write queue length does an incoming req see
system.mem_ctrl.wrQLenPdf::46                       0                       # What write queue length does an incoming req see
system.mem_ctrl.wrQLenPdf::47                       0                       # What write queue length does an incoming req see
system.mem_ctrl.wrQLenPdf::48                       0                       # What write queue length does an incoming req see
system.mem_ctrl.wrQLenPdf::49                       0                       # What write queue length does an incoming req see
system.mem_ctrl.wrQLenPdf::50                       0                       # What write queue length does an incoming req see
system.mem_ctrl.wrQLenPdf::51                       0                       # What write queue length does an incoming req see
system.mem_ctrl.wrQLenPdf::52                       0                       # What write queue length does an incoming req see
system.mem_ctrl.wrQLenPdf::53                       0                       # What write queue length does an incoming req see
system.mem_ctrl.wrQLenPdf::54                       0                       # What write queue length does an incoming req see
system.mem_ctrl.wrQLenPdf::55                       0                       # What write queue length does an incoming req see
system.mem_ctrl.wrQLenPdf::56                       0                       # What write queue length does an incoming req see
system.mem_ctrl.wrQLenPdf::57                       0                       # What write queue length does an incoming req see
system.mem_ctrl.wrQLenPdf::58                       0                       # What write queue length does an incoming req see
system.mem_ctrl.wrQLenPdf::59                       0                       # What write queue length does an incoming req see
system.mem_ctrl.wrQLenPdf::60                       0                       # What write queue length does an incoming req see
system.mem_ctrl.wrQLenPdf::61                       0                       # What write queue length does an incoming req see
system.mem_ctrl.wrQLenPdf::62                       0                       # What write queue length does an incoming req see
system.mem_ctrl.wrQLenPdf::63                       0                       # What write queue length does an incoming req see
system.mem_ctrl.bytesPerActivate::samples          293                       # Bytes accessed per row activation
system.mem_ctrl.bytesPerActivate::mean     385.310580                       # Bytes accessed per row activation
system.mem_ctrl.bytesPerActivate::gmean    256.217145                       # Bytes accessed per row activation
system.mem_ctrl.bytesPerActivate::stdev    336.033963                       # Bytes accessed per row activation
system.mem_ctrl.bytesPerActivate::0-127            48     16.38%     16.38% # Bytes accessed per row activation
system.mem_ctrl.bytesPerActivate::128-255           92     31.40%     47.78% # Bytes accessed per row activation
system.mem_ctrl.bytesPerActivate::256-383           40     13.65%     61.43% # Bytes accessed per row activation
system.mem_ctrl.bytesPerActivate::384-511           29      9.90%     71.33% # Bytes accessed per row activation
system.mem_ctrl.bytesPerActivate::512-639           10      3.41%     74.74% # Bytes accessed per row activation
system.mem_ctrl.bytesPerActivate::640-767           14      4.78%     79.52% # Bytes accessed per row activation
system.mem_ctrl.bytesPerActivate::768-895           11      3.75%     83.28% # Bytes accessed per row activation
system.mem_ctrl.bytesPerActivate::896-1023           10      3.41%     86.69% # Bytes accessed per row activation
system.mem_ctrl.bytesPerActivate::1024-1151           39     13.31%    100.00% # Bytes accessed per row activation
system.mem_ctrl.bytesPerActivate::total           293                       # Bytes accessed per row activation
system.mem_ctrl.rdPerTurnAround::samples           50                       # Reads before turning the bus around for writes
system.mem_ctrl.rdPerTurnAround::mean       19.180000                       # Reads before turning the bus around for writes
system.mem_ctrl.rdPerTurnAround::gmean      17.030006                       # Reads before turning the bus around for writes
system.mem_ctrl.rdPerTurnAround::stdev      20.351694                       # Reads before turning the bus around for writes
system.mem_ctrl.rdPerTurnAround::8-15              14     28.00%     28.00% # Reads before turning the bus around for writes
system.mem_ctrl.rdPerTurnAround::16-23             35     70.00%     98.00% # Reads before turning the bus around for writes
system.mem_ctrl.rdPerTurnAround::160-167            1      2.00%    100.00% # Reads before turning the bus around for writes
system.mem_ctrl.rdPerTurnAround::total             50                       # Reads before turning the bus around for writes
system.mem_ctrl.wrPerTurnAround::samples           50                       # Writes before turning the bus around for reads
system.mem_ctrl.wrPerTurnAround::mean       16.760000                       # Writes before turning the bus around for reads
system.mem_ctrl.wrPerTurnAround::gmean      16.719710                       # Writes before turning the bus around for reads
system.mem_ctrl.wrPerTurnAround::stdev       1.204752                       # Writes before turning the bus around for reads
system.mem_ctrl.wrPerTurnAround::16                34     68.00%     68.00% # Writes before turning the bus around for reads
system.mem_ctrl.wrPerTurnAround::17                 2      4.00%     72.00% # Writes before turning the bus around for reads
system.mem_ctrl.wrPerTurnAround::18                 7     14.00%     86.00% # Writes before turning the bus around for reads
system.mem_ctrl.wrPerTurnAround::19                 6     12.00%     98.00% # Writes before turning the bus around for reads
system.mem_ctrl.wrPerTurnAround::20                 1      2.00%    100.00% # Writes before turning the bus around for reads
system.mem_ctrl.wrPerTurnAround::total             50                       # Writes before turning the bus around for reads
system.mem_ctrl.totQLat                      16582750                       # Total ticks spent queuing
system.mem_ctrl.totMemAccLat                 34582750                       # Total ticks spent from burst creation until serviced by the DRAM
system.mem_ctrl.totBusLat                     4800000                       # Total ticks spent in databus transfers
system.mem_ctrl.avgQLat                      17273.70                       # Average queueing delay per DRAM burst
system.mem_ctrl.avgBusLat                     5000.00                       # Average bus latency per DRAM burst
system.mem_ctrl.avgMemAccLat                 36023.70                       # Average memory access latency per DRAM burst
system.mem_ctrl.avgRdBW                        333.92                       # Average DRAM read bandwidth in MiByte/s
system.mem_ctrl.avgWrBW                        291.48                       # Average achieved write bandwidth in MiByte/s
system.mem_ctrl.avgRdBWSys                    1899.16                       # Average system read bandwidth in MiByte/s
system.mem_ctrl.avgWrBWSys                    1854.64                       # Average system write bandwidth in MiByte/s
system.mem_ctrl.peakBW                       12800.00                       # Theoretical peak bandwidth in MiByte/s
system.mem_ctrl.busUtil                          4.89                       # Data bus utilization in percentage
system.mem_ctrl.busUtilRead                      2.61                       # Data bus utilization in percentage for reads
system.mem_ctrl.busUtilWrite                     2.28                       # Data bus utilization in percentage for writes
system.mem_ctrl.avgRdQLen                        1.00                       # Average read queue length when enqueuing
system.mem_ctrl.avgWrQLen                       24.36                       # Average write queue length when enqueuing
system.mem_ctrl.readRowHits                       727                       # Number of row buffer hits during reads
system.mem_ctrl.writeRowHits                      770                       # Number of row buffer hits during writes
system.mem_ctrl.readRowHitRate                  75.73                       # Row buffer hit rate for reads
system.mem_ctrl.writeRowHitRate                 90.06                       # Row buffer hit rate for writes
system.mem_ctrl.avgGap                       17048.18                       # Average gap between requests
system.mem_ctrl.pageHitRate                     82.48                       # Row buffer hit rate, read and write combined
system.mem_ctrl_0.actEnergy                   1013880                       # Energy for activate commands per rank (pJ)
system.mem_ctrl_0.preEnergy                    519915                       # Energy for precharge commands per rank (pJ)
system.mem_ctrl_0.readEnergy                  3691380                       # Energy for read commands per rank (pJ)
system.mem_ctrl_0.writeEnergy                 2281140                       # Energy for write commands per rank (pJ)
system.mem_ctrl_0.refreshEnergy          14136720.000000                       # Energy for refresh commands per rank (pJ)
system.mem_ctrl_0.actBackEnergy              19390260                       # Energy for active background per rank (pJ)
system.mem_ctrl_0.preBackEnergy                320160                       # Energy for precharge background per rank (pJ)
system.mem_ctrl_0.actPowerDownEnergy         56799360                       # Energy for active power-down per rank (pJ)
system.mem_ctrl_0.prePowerDownEnergy          6175200                       # Energy for precharge power-down per rank (pJ)
system.mem_ctrl_0.selfRefreshEnergy                 0                       # Energy for self refresh per rank (pJ)
system.mem_ctrl_0.totalEnergy               104328015                       # Total energy per rank (pJ)
system.mem_ctrl_0.averagePower             567.007785                       # Core power per rank (mW)
system.mem_ctrl_0.totalIdleTime             140665500                       # Total Idle time Per DRAM Rank
system.mem_ctrl_0.memoryStateTime::IDLE        142750                       # Time in different power states
system.mem_ctrl_0.memoryStateTime::REF        5980000                       # Time in different power states
system.mem_ctrl_0.memoryStateTime::SREF             0                       # Time in different power states
system.mem_ctrl_0.memoryStateTime::PRE_PDN     16078500                       # Time in different power states
system.mem_ctrl_0.memoryStateTime::ACT       37208750                       # Time in different power states
system.mem_ctrl_0.memoryStateTime::ACT_PDN    124587000                       # Time in different power states
system.mem_ctrl_1.actEnergy                   1135260                       # Energy for activate commands per rank (pJ)
system.mem_ctrl_1.preEnergy                    592020                       # Energy for precharge commands per rank (pJ)
system.mem_ctrl_1.readEnergy                  3163020                       # Energy for read commands per rank (pJ)
system.mem_ctrl_1.writeEnergy                 2093220                       # Energy for write commands per rank (pJ)
system.mem_ctrl_1.refreshEnergy          15366000.000000                       # Energy for refresh commands per rank (pJ)
system.mem_ctrl_1.actBackEnergy              15137490                       # Energy for active background per rank (pJ)
system.mem_ctrl_1.preBackEnergy                722880                       # Energy for precharge background per rank (pJ)
system.mem_ctrl_1.actPowerDownEnergy         54684660                       # Energy for active power-down per rank (pJ)
system.mem_ctrl_1.prePowerDownEnergy         10104480                       # Energy for precharge power-down per rank (pJ)
system.mem_ctrl_1.selfRefreshEnergy      1748280.000000                       # Energy for self refresh per rank (pJ)
system.mem_ctrl_1.totalEnergy               104747310                       # Total energy per rank (pJ)
system.mem_ctrl_1.averagePower             569.286594                       # Core power per rank (mW)
system.mem_ctrl_1.totalIdleTime             148877500                       # Total Idle time Per DRAM Rank
system.mem_ctrl_1.memoryStateTime::IDLE       1235250                       # Time in different power states
system.mem_ctrl_1.memoryStateTime::REF        6512000                       # Time in different power states
system.mem_ctrl_1.memoryStateTime::SREF       2682000                       # Time in different power states
system.mem_ctrl_1.memoryStateTime::PRE_PDN     26312000                       # Time in different power states
system.mem_ctrl_1.memoryStateTime::ACT       27329500                       # Time in different power states
system.mem_ctrl_1.memoryStateTime::ACT_PDN    119926250                       # Time in different power states
system.pwrStateResidencyTicks::UNDEFINED    183997000                       # Cumulative time (in ticks) in various power states
system.cache.pwrStateResidencyTicks::UNDEFINED    183997000                       # Cumulative time (in ticks) in various power states
system.cache.hits                                8105                       # Number of hits
system.cache.misses                              5460                       # Number of misses
system.cache.missLatency::samples                5460                       # Ticks for misses to the cache
system.cache.missLatency::mean           31214.652015                       # Ticks for misses to the cache
system.cache.missLatency::gmean          27787.353967                       # Ticks for misses to the cache
system.cache.missLatency::stdev          24084.438184                       # Ticks for misses to the cache
system.cache.missLatency::0-65535                5215     95.51%     95.51% # Ticks for misses to the cache
system.cache.missLatency::65536-131071            203      3.72%     99.23% # Ticks for misses to the cache
system.cache.missLatency::131072-196607            25      0.46%     99.69% # Ticks for misses to the cache
system.cache.missLatency::196608-262143             2      0.04%     99.73% # Ticks for misses to the cache
system.cache.missLatency::262144-327679            10      0.18%     99.91% # Ticks for misses to the cache
system.cache.missLatency::327680-393215             3      0.05%     99.96% # Ticks for misses to the cache
system.cache.missLatency::393216-458751             1      0.02%     99.98% # Ticks for misses to the cache
system.cache.missLatency::458752-524287             0      0.00%     99.98% # Ticks for misses to the cache
system.cache.missLatency::524288-589823             0      0.00%     99.98% # Ticks for misses to the cache
system.cache.missLatency::589824-655359             1      0.02%    100.00% # Ticks for misses to the cache
system.cache.missLatency::655360-720895             0      0.00%    100.00% # Ticks for misses to the cache
system.cache.missLatency::720896-786431             0      0.00%    100.00% # Ticks for misses to the cache
system.cache.missLatency::786432-851967             0      0.00%    100.00% # Ticks for misses to the cache
system.cache.missLatency::851968-917503             0      0.00%    100.00% # Ticks for misses to the cache
system.cache.missLatency::917504-983039             0      0.00%    100.00% # Ticks for misses to the cache
system.cache.missLatency::983040-1.04858e+06            0      0.00%    100.00% # Ticks for misses to the cache
system.cache.missLatency::total                  5460                       # Ticks for misses to the cache
system.cache.hitRatio                        0.597494                       # The ratio of hits to the total accesses to the cache
system.cpu.dtb.fetch_hits                           0                       # ITB hits
system.cpu.dtb.fetch_misses                         0                       # ITB misses
system.cpu.dtb.fetch_acv                            0                       # ITB acv
system.cpu.dtb.fetch_accesses                       0                       # ITB accesses
system.cpu.dtb.read_hits                         1982                       # DTB read hits
system.cpu.dtb.read_misses                         12                       # DTB read misses
system.cpu.dtb.read_acv                             0                       # DTB read access violations
system.cpu.dtb.read_accesses                     1994                       # DTB read accesses
system.cpu.dtb.write_hits                        1240                       # DTB write hits
system.cpu.dtb.write_misses                         2                       # DTB write misses
system.cpu.dtb.write_acv                            0                       # DTB write access violations
system.cpu.dtb.write_accesses                    1242                       # DTB write accesses
system.cpu.dtb.data_hits                         3222                       # DTB hits
system.cpu.dtb.data_misses                         14                       # DTB misses
system.cpu.dtb.data_acv                             0                       # DTB access violations
system.cpu.dtb.data_accesses                     3236                       # DTB accesses
system.cpu.itb.fetch_hits                       10344                       # ITB hits
system.cpu.itb.fetch_misses                        24                       # ITB misses
system.cpu.itb.fetch_acv                            0                       # ITB acv
system.cpu.itb.fetch_accesses                   10368                       # ITB accesses
system.cpu.itb.read_hits                            0                       # DTB read hits
system.cpu.itb.read_misses                          0                       # DTB read misses
system.cpu.itb.read_acv                             0                       # DTB read access violations
system.cpu.itb.read_accesses                        0                       # DTB read accesses
system.cpu.itb.write_hits                           0                       # DTB write hits
system.cpu.itb.write_misses                         0                       # DTB write misses
system.cpu.itb.write_acv                            0                       # DTB write access violations
system.cpu.itb.write_accesses                       0                       # DTB write accesses
system.cpu.itb.data_hits                            0                       # DTB hits
system.cpu.itb.data_misses                          0                       # DTB misses
system.cpu.itb.data_acv                             0                       # DTB access violations
system.cpu.itb.data_accesses                        0                       # DTB accesses
system.cpu.workload.numSyscalls                    10                       # Number of system calls
system.cpu.pwrStateResidencyTicks::ON       183997000                       # Cumulative time (in ticks) in various power states
system.cpu.numCycles                           183997                       # number of cpu cycles simulated
system.cpu.numWorkItemsStarted                      0                       # number of work items this cpu started
system.cpu.numWorkItemsCompleted                    0                       # number of work items this cpu completed
system.cpu.committedInsts                       10329                       # Number of instructions committed
system.cpu.committedOps                         10329                       # Number of ops (including micro ops) committed
system.cpu.num_int_alu_accesses                 10181                       # Number of integer alu accesses
system.cpu.num_fp_alu_accesses                     16                       # Number of float alu accesses
system.cpu.num_vec_alu_accesses                     0                       # Number of vector alu accesses
system.cpu.num_func_calls                         357                       # number of times a function call or return occured
system.cpu.num_conditional_control_insts         1146                       # number of instructions that are conditional controls
system.cpu.num_int_insts                        10181                       # number of integer instructions
system.cpu.num_fp_insts                            16                       # number of float instructions
system.cpu.num_vec_insts                            0                       # number of vector instructions
system.cpu.num_int_register_reads               13900                       # number of times the integer registers were read
system.cpu.num_int_register_writes               7590                       # number of times the integer registers were written
system.cpu.num_fp_register_reads                   14                       # number of times the floating registers were read
system.cpu.num_fp_register_writes                   2                       # number of times the floating registers were written
system.cpu.num_vec_register_reads                   0                       # number of times the vector registers were read
system.cpu.num_vec_register_writes                  0                       # number of times the vector registers were written
system.cpu.num_mem_refs                          3236                       # number of memory refs
system.cpu.num_load_insts                        1994                       # Number of load instructions
system.cpu.num_store_insts                       1242                       # Number of store instructions
system.cpu.num_idle_cycles                          0                       # Number of idle cycles
system.cpu.num_busy_cycles                     183997                       # Number of busy cycles
system.cpu.not_idle_fraction                        1                       # Percentage of non-idle cycles
system.cpu.idle_fraction                            0                       # Percentage of idle cycles
system.cpu.Branches                              1604                       # Number of branches fetched
system.cpu.op_class::No_OpClass                    67      0.65%      0.65% # Class of executed instruction
system.cpu.op_class::IntAlu                      6997     67.65%     68.30% # Class of executed instruction
system.cpu.op_class::IntMult                       41      0.40%     68.69% # Class of executed instruction
system.cpu.op_class::IntDiv                         0      0.00%     68.69% # Class of executed instruction
system.cpu.op_class::FloatAdd                       2      0.02%     68.71% # Class of executed instruction
system.cpu.op_class::FloatCmp                       0      0.00%     68.71% # Class of executed instruction
system.cpu.op_class::FloatCvt                       0      0.00%     68.71% # Class of executed instruction
system.cpu.op_class::FloatMult                      0      0.00%     68.71% # Class of executed instruction
system.cpu.op_class::FloatMultAcc                   0      0.00%     68.71% # Class of executed instruction
system.cpu.op_class::FloatDiv                       0      0.00%     68.71% # Class of executed instruction
system.cpu.op_class::FloatMisc                      0      0.00%     68.71% # Class of executed instruction
system.cpu.op_class::FloatSqrt                      0      0.00%     68.71% # Class of executed instruction
system.cpu.op_class::SimdAdd                        0      0.00%     68.71% # Class of executed instruction
system.cpu.op_class::SimdAddAcc                     0      0.00%     68.71% # Class of executed instruction
system.cpu.op_class::SimdAlu                        0      0.00%     68.71% # Class of executed instruction
system.cpu.op_class::SimdCmp                        0      0.00%     68.71% # Class of executed instruction
system.cpu.op_class::SimdCvt                        0      0.00%     68.71% # Class of executed instruction
system.cpu.op_class::SimdMisc                       0      0.00%     68.71% # Class of executed instruction
system.cpu.op_class::SimdMult                       0      0.00%     68.71% # Class of executed instruction
system.cpu.op_class::SimdMultAcc                    0      0.00%     68.71% # Class of executed instruction
system.cpu.op_class::SimdShift                      0      0.00%     68.71% # Class of executed instruction
system.cpu.op_class::SimdShiftAcc                   0      0.00%     68.71% # Class of executed instruction
system.cpu.op_class::SimdSqrt                       0      0.00%     68.71% # Class of executed instruction
system.cpu.op_class::SimdFloatAdd                   0      0.00%     68.71% # Class of executed instruction
system.cpu.op_class::SimdFloatAlu                   0      0.00%     68.71% # Class of executed instruction
system.cpu.op_class::SimdFloatCmp                   0      0.00%     68.71% # Class of executed instruction
system.cpu.op_class::SimdFloatCvt                   0      0.00%     68.71% # Class of executed instruction
system.cpu.op_class::SimdFloatDiv                   0      0.00%     68.71% # Class of executed instruction
system.cpu.op_class::SimdFloatMisc                  0      0.00%     68.71% # Class of executed instruction
system.cpu.op_class::SimdFloatMult                  0      0.00%     68.71% # Class of executed instruction
system.cpu.op_class::SimdFloatMultAcc               0      0.00%     68.71% # Class of executed instruction
system.cpu.op_class::SimdFloatSqrt                  0      0.00%     68.71% # Class of executed instruction
system.cpu.op_class::MemRead                     1993     19.27%     87.98% # Class of executed instruction
system.cpu.op_class::MemWrite                    1229     11.88%     99.86% # Class of executed instruction
system.cpu.op_class::FloatMemRead                   1      0.01%     99.87% # Class of executed instruction
system.cpu.op_class::FloatMemWrite                 13      0.13%    100.00% # Class of executed instruction
system.cpu.op_class::IprAccess                      0      0.00%    100.00% # Class of executed instruction
system.cpu.op_class::InstPrefetch                   0      0.00%    100.00% # Class of executed instruction
system.cpu.op_class::total                      10343                       # Class of executed instruction
system.membus.snoop_filter.tot_requests             0                       # Total number of requests made to the snoop filter.
system.membus.snoop_filter.hit_single_requests            0                       # Number of requests hitting in the snoop filter with a single holder of the requested data.
system.membus.snoop_filter.hit_multi_requests            0                       # Number of requests hitting in the snoop filter with multiple (>1) holders of the requested data.
system.membus.snoop_filter.tot_snoops               0                       # Total number of snoops made to the snoop filter.
system.membus.snoop_filter.hit_single_snoops            0                       # Number of snoops hitting in the snoop filter with a single holder of the requested data.
system.membus.snoop_filter.hit_multi_snoops            0                       # Number of snoops hitting in the snoop filter with multiple (>1) holders of the requested data.
system.membus.pwrStateResidencyTicks::UNDEFINED    183997000                       # Cumulative time (in ticks) in various power states
system.membus.trans_dist::ReadReq                5460                       # Transaction distribution
system.membus.trans_dist::ReadResp               5460                       # Transaction distribution
system.membus.trans_dist::WritebackDirty         5332                       # Transaction distribution
system.membus.pkt_count_system.cache.mem_side::system.mem_ctrl.port        16252                       # Packet count per connected master and slave (bytes)
system.membus.pkt_count::total                  16252                       # Packet count per connected master and slave (bytes)
system.membus.pkt_size_system.cache.mem_side::system.mem_ctrl.port       690688                       # Cumulative packet size per connected master and slave (bytes)
system.membus.pkt_size::total                  690688                       # Cumulative packet size per connected master and slave (bytes)
system.membus.snoops                                0                       # Total snoops (count)
system.membus.snoopTraffic                          0                       # Total snoop traffic (bytes)
system.membus.snoop_fanout::samples              5460                       # Request fanout histogram
system.membus.snoop_fanout::mean                    0                       # Request fanout histogram
system.membus.snoop_fanout::stdev                   0                       # Request fanout histogram
system.membus.snoop_fanout::underflows              0      0.00%      0.00% # Request fanout histogram
system.membus.snoop_fanout::0                    5460    100.00%    100.00% # Request fanout histogram
system.membus.snoop_fanout::overflows               0      0.00%    100.00% # Request fanout histogram
system.membus.snoop_fanout::min_value               0                       # Request fanout histogram
system.membus.snoop_fanout::max_value               0                       # Request fanout histogram
system.membus.snoop_fanout::total                5460                       # Request fanout histogram
system.membus.reqLayer0.occupancy            32120000                       # Layer occupancy (ticks)
system.membus.reqLayer0.utilization              17.5                       # Layer utilization (%)
system.membus.respLayer0.occupancy           27604250                       # Layer occupancy (ticks)
system.membus.respLayer0.utilization             15.0                       # Layer utilization (%)

---------- End Simulation Statistics   ----------
