
---------- Begin Simulation Statistics ----------
sim_seconds                                  0.000108                       # Number of seconds simulated
sim_ticks                                   108069000                       # Number of ticks simulated
final_tick                                  108069000                       # Number of ticks from beginning of simulation (restored from checkpoints and never reset)
sim_freq                                 1000000000000                       # Frequency of simulated ticks
host_inst_rate                                 326569                       # Simulator instruction rate (inst/s)
host_op_rate                                   326189                       # Simulator op (including micro ops) rate (op/s)
host_tick_rate                             5456652361                       # Simulator tick rate (ticks/s)
host_mem_usage                                8484292                       # Number of bytes of host memory used
host_seconds                                     0.02                       # Real time elapsed on the host
sim_insts                                        6453                       # Number of instructions simulated
sim_ops                                          6453                       # Number of ops (including micro ops) simulated
system.clk_domain.voltage_domain.voltage            1                       # Voltage in Volts
system.clk_domain.clock                          1000                       # Clock period in ticks
system.mem_ctrl.pwrStateResidencyTicks::UNDEFINED    108069000                       # Cumulative time (in ticks) in various power states
system.mem_ctrl.bytes_read::cpu.inst           115264                       # Number of bytes read from this memory
system.mem_ctrl.bytes_read::cpu.data            82560                       # Number of bytes read from this memory
system.mem_ctrl.bytes_read::total              197824                       # Number of bytes read from this memory
system.mem_ctrl.bytes_inst_read::cpu.inst       115264                       # Number of instructions bytes read from this memory
system.mem_ctrl.bytes_inst_read::total         115264                       # Number of instructions bytes read from this memory
system.mem_ctrl.bytes_written::writebacks       189632                       # Number of bytes written to this memory
system.mem_ctrl.bytes_written::total           189632                       # Number of bytes written to this memory
system.mem_ctrl.num_reads::cpu.inst              1801                       # Number of read requests responded to by this memory
system.mem_ctrl.num_reads::cpu.data              1290                       # Number of read requests responded to by this memory
system.mem_ctrl.num_reads::total                 3091                       # Number of read requests responded to by this memory
system.mem_ctrl.num_writes::writebacks           2963                       # Number of write requests responded to by this memory
system.mem_ctrl.num_writes::total                2963                       # Number of write requests responded to by this memory
system.mem_ctrl.bw_read::cpu.inst          1066577835                       # Total read bandwidth from this memory (bytes/s)
system.mem_ctrl.bw_read::cpu.data           763956361                       # Total read bandwidth from this memory (bytes/s)
system.mem_ctrl.bw_read::total             1830534196                       # Total read bandwidth from this memory (bytes/s)
system.mem_ctrl.bw_inst_read::cpu.inst     1066577835                       # Instruction read bandwidth from this memory (bytes/s)
system.mem_ctrl.bw_inst_read::total        1066577835                       # Instruction read bandwidth from this memory (bytes/s)
system.mem_ctrl.bw_write::writebacks       1754730774                       # Write bandwidth from this memory (bytes/s)
system.mem_ctrl.bw_write::total            1754730774                       # Write bandwidth from this memory (bytes/s)
system.mem_ctrl.bw_total::writebacks       1754730774                       # Total bandwidth to/from this memory (bytes/s)
system.mem_ctrl.bw_total::cpu.inst         1066577835                       # Total bandwidth to/from this memory (bytes/s)
system.mem_ctrl.bw_total::cpu.data          763956361                       # Total bandwidth to/from this memory (bytes/s)
system.mem_ctrl.bw_total::total            3585264970                       # Total bandwidth to/from this memory (bytes/s)
system.mem_ctrl.readReqs                         3091                       # Number of read requests accepted
system.mem_ctrl.writeReqs                        2963                       # Number of write requests accepted
system.mem_ctrl.readBursts                       3091                       # Number of DRAM read bursts, including those serviced by the write queue
system.mem_ctrl.writeBursts                      2963                       # Number of DRAM write bursts, including those merged in the write queue
system.mem_ctrl.bytesReadDRAM                   39488                       # Total number of bytes read from DRAM
system.mem_ctrl.bytesReadWrQ                   158336                       # Total number of bytes read from write queue
system.mem_ctrl.bytesWritten                    30080                       # Total number of bytes written to DRAM
system.mem_ctrl.bytesReadSys                   197824                       # Total read bytes from the system interface side
system.mem_ctrl.bytesWrittenSys                189632                       # Total written bytes from the system interface side
system.mem_ctrl.servicedByWrQ                    2474                       # Number of DRAM read bursts serviced by the write queue
system.mem_ctrl.mergedWrBursts                   2461                       # Number of DRAM write bursts merged with an existing one
system.mem_ctrl.neitherReadNorWriteReqs             0                       # Number of requests that are neither read nor write
system.mem_ctrl.perBankRdBursts::0                 73                       # Per bank write bursts
system.mem_ctrl.perBankRdBursts::1                 33                       # Per bank write bursts
system.mem_ctrl.perBankRdBursts::2                 53                       # Per bank write bursts
system.mem_ctrl.perBankRdBursts::3                 48                       # Per bank write bursts
system.mem_ctrl.perBankRdBursts::4                 70                       # Per bank write bursts
system.mem_ctrl.perBankRdBursts::5                 23                       # Per bank write bursts
system.mem_ctrl.perBankRdBursts::6                  2                       # Per bank write bursts
system.mem_ctrl.perBankRdBursts::7                  3                       # Per bank write bursts
system.mem_ctrl.perBankRdBursts::8                  0                       # Per bank write bursts
system.mem_ctrl.perBankRdBursts::9                  1                       # Per bank write bursts
system.mem_ctrl.perBankRdBursts::10                38                       # Per bank write bursts
system.mem_ctrl.perBankRdBursts::11                30                       # Per bank write bursts
system.mem_ctrl.perBankRdBursts::12                20                       # Per bank write bursts
system.mem_ctrl.perBankRdBursts::13               146                       # Per bank write bursts
system.mem_ctrl.perBankRdBursts::14                63                       # Per bank write bursts
system.mem_ctrl.perBankRdBursts::15                14                       # Per bank write bursts
system.mem_ctrl.perBankWrBursts::0                 52                       # Per bank write bursts
system.mem_ctrl.perBankWrBursts::1                 30                       # Per bank write bursts
system.mem_ctrl.perBankWrBursts::2                 56                       # Per bank write bursts
system.mem_ctrl.perBankWrBursts::3                 31                       # Per bank write bursts
system.mem_ctrl.perBankWrBursts::4                 45                       # Per bank write bursts
system.mem_ctrl.perBankWrBursts::5                 25                       # Per bank write bursts
system.mem_ctrl.perBankWrBursts::6                  2                       # Per bank write bursts
system.mem_ctrl.perBankWrBursts::7                  3                       # Per bank write bursts
system.mem_ctrl.perBankWrBursts::8                  0                       # Per bank write bursts
system.mem_ctrl.perBankWrBursts::9                  1                       # Per bank write bursts
system.mem_ctrl.perBankWrBursts::10                28                       # Per bank write bursts
system.mem_ctrl.perBankWrBursts::11                24                       # Per bank write bursts
system.mem_ctrl.perBankWrBursts::12                14                       # Per bank write bursts
system.mem_ctrl.perBankWrBursts::13                90                       # Per bank write bursts
system.mem_ctrl.perBankWrBursts::14                60                       # Per bank write bursts
system.mem_ctrl.perBankWrBursts::15                 9                       # Per bank write bursts
system.mem_ctrl.numRdRetry                          0                       # Number of times read queue was full causing retry
system.mem_ctrl.numWrRetry                          0                       # Number of times write queue was full causing retry
system.mem_ctrl.totGap                      108061000                       # Total gap between requests
system.mem_ctrl.readPktSize::0                      0                       # Read request sizes (log2)
system.mem_ctrl.readPktSize::1                      0                       # Read request sizes (log2)
system.mem_ctrl.readPktSize::2                      0                       # Read request sizes (log2)
system.mem_ctrl.readPktSize::3                      0                       # Read request sizes (log2)
system.mem_ctrl.readPktSize::4                      0                       # Read request sizes (log2)
system.mem_ctrl.readPktSize::5                      0                       # Read request sizes (log2)
system.mem_ctrl.readPktSize::6                   3091                       # Read request sizes (log2)
system.mem_ctrl.writePktSize::0                     0                       # Write request sizes (log2)
system.mem_ctrl.writePktSize::1                     0                       # Write request sizes (log2)
system.mem_ctrl.writePktSize::2                     0                       # Write request sizes (log2)
system.mem_ctrl.writePktSize::3                     0                       # Write request sizes (log2)
system.mem_ctrl.writePktSize::4                     0                       # Write request sizes (log2)
system.mem_ctrl.writePktSize::5                     0                       # Write request sizes (log2)
system.mem_ctrl.writePktSize::6                  2963                       # Write request sizes (log2)
system.mem_ctrl.rdQLenPdf::0                      617                       # What read queue length does an incoming req see
system.mem_ctrl.rdQLenPdf::1                        0                       # What read queue length does an incoming req see
system.mem_ctrl.rdQLenPdf::2                        0                       # What read queue length does an incoming req see
system.mem_ctrl.rdQLenPdf::3                        0                       # What read queue length does an incoming req see
system.mem_ctrl.rdQLenPdf::4                        0                       # What read queue length does an incoming req see
system.mem_ctrl.rdQLenPdf::5                        0                       # What read queue length does an incoming req see
system.mem_ctrl.rdQLenPdf::6                        0                       # What read queue length does an incoming req see
system.mem_ctrl.rdQLenPdf::7                        0                       # What read queue length does an incoming req see
system.mem_ctrl.rdQLenPdf::8                        0                       # What read queue length does an incoming req see
system.mem_ctrl.rdQLenPdf::9                        0                       # What read queue length does an incoming req see
system.mem_ctrl.rdQLenPdf::10                       0                       # What read queue length does an incoming req see
system.mem_ctrl.rdQLenPdf::11                       0                       # What read queue length does an incoming req see
system.mem_ctrl.rdQLenPdf::12                       0                       # What read queue length does an incoming req see
system.mem_ctrl.rdQLenPdf::13                       0                       # What read queue length does an incoming req see
system.mem_ctrl.rdQLenPdf::14                       0                       # What read queue length does an incoming req see
system.mem_ctrl.rdQLenPdf::15                       0                       # What read queue length does an incoming req see
system.mem_ctrl.rdQLenPdf::16                       0                       # What read queue length does an incoming req see
system.mem_ctrl.rdQLenPdf::17                       0                       # What read queue length does an incoming req see
system.mem_ctrl.rdQLenPdf::18                       0                       # What read queue length does an incoming req see
system.mem_ctrl.rdQLenPdf::19                       0                       # What read queue length does an incoming req see
system.mem_ctrl.rdQLenPdf::20                       0                       # What read queue length does an incoming req see
system.mem_ctrl.rdQLenPdf::21                       0                       # What read queue length does an incoming req see
system.mem_ctrl.rdQLenPdf::22                       0                       # What read queue length does an incoming req see
system.mem_ctrl.rdQLenPdf::23                       0                       # What read queue length does an incoming req see
system.mem_ctrl.rdQLenPdf::24                       0                       # What read queue length does an incoming req see
system.mem_ctrl.rdQLenPdf::25                       0                       # What read queue length does an incoming req see
system.mem_ctrl.rdQLenPdf::26                       0                       # What read queue length does an incoming req see
system.mem_ctrl.rdQLenPdf::27                       0                       # What read queue length does an incoming req see
system.mem_ctrl.rdQLenPdf::28                       0                       # What read queue length does an incoming req see
system.mem_ctrl.rdQLenPdf::29                       0                       # What read queue length does an incoming req see
system.mem_ctrl.rdQLenPdf::30                       0                       # What read queue length does an incoming req see
system.mem_ctrl.rdQLenPdf::31                       0                       # What read queue length does an incoming req see
system.mem_ctrl.wrQLenPdf::0                        1                       # What write queue length does an incoming req see
system.mem_ctrl.wrQLenPdf::1                        1                       # What write queue length does an incoming req see
system.mem_ctrl.wrQLenPdf::2                        1                       # What write queue length does an incoming req see
system.mem_ctrl.wrQLenPdf::3                        1                       # What write queue length does an incoming req see
system.mem_ctrl.wrQLenPdf::4                        1                       # What write queue length does an incoming req see
system.mem_ctrl.wrQLenPdf::5                        1                       # What write queue length does an incoming req see
system.mem_ctrl.wrQLenPdf::6                        1                       # What write queue length does an incoming req see
system.mem_ctrl.wrQLenPdf::7                        1                       # What write queue length does an incoming req see
system.mem_ctrl.wrQLenPdf::8                        1                       # What write queue length does an incoming req see
system.mem_ctrl.wrQLenPdf::9                        1                       # What write queue length does an incoming req see
system.mem_ctrl.wrQLenPdf::10                       1                       # What write queue length does an incoming req see
system.mem_ctrl.wrQLenPdf::11                       1                       # What write queue length does an incoming req see
system.mem_ctrl.wrQLenPdf::12                       1                       # What write queue length does an incoming req see
system.mem_ctrl.wrQLenPdf::13                       1                       # What write queue length does an incoming req see
system.mem_ctrl.wrQLenPdf::14                       1                       # What write queue length does an incoming req see
system.mem_ctrl.wrQLenPdf::15                      11                       # What write queue length does an incoming req see
system.mem_ctrl.wrQLenPdf::16                      11                       # What write queue length does an incoming req see
system.mem_ctrl.wrQLenPdf::17                      26                       # What write queue length does an incoming req see
system.mem_ctrl.wrQLenPdf::18                      29                       # What write queue length does an incoming req see
system.mem_ctrl.wrQLenPdf::19                      29                       # What write queue length does an incoming req see
system.mem_ctrl.wrQLenPdf::20                      29                       # What write queue length does an incoming req see
system.mem_ctrl.wrQLenPdf::21                      30                       # What write queue length does an incoming req see
system.mem_ctrl.wrQLenPdf::22                      30                       # What write queue length does an incoming req see
system.mem_ctrl.wrQLenPdf::23                      32                       # What write queue length does an incoming req see
system.mem_ctrl.wrQLenPdf::24                      29                       # What write queue length does an incoming req see
system.mem_ctrl.wrQLenPdf::25                      29                       # What write queue length does an incoming req see
system.mem_ctrl.wrQLenPdf::26                      29                       # What write queue length does an incoming req see
system.mem_ctrl.wrQLenPdf::27                      29                       # What write queue length does an incoming req see
system.mem_ctrl.wrQLenPdf::28                      29                       # What write queue length does an incoming req see
system.mem_ctrl.wrQLenPdf::29                      29                       # What write queue length does an incoming req see
system.mem_ctrl.wrQLenPdf::30                      29                       # What write queue length does an incoming req see
system.mem_ctrl.wrQLenPdf::31                      29                       # What write queue length does an incoming req see
system.mem_ctrl.wrQLenPdf::32                      28                       # What write queue length does an incoming req see
system.mem_ctrl.wrQLenPdf::33                       0                       # What write queue length does an incoming req see
system.mem_ctrl.wrQLenPdf::34                       0                       # What write queue length does an incoming req see
system.mem_ctrl.wrQLenPdf::35                       0                       # What write queue length does an incoming req see
system.mem_ctrl.wrQLenPdf::36                       0                       # What write queue length does an incoming req see
system.mem_ctrl.wrQLenPdf::37                       0                       # What write queue length does an incoming req see
system.mem_ctrl.wrQLenPdf::38                       0                       # What write queue length does an incoming req see
system.mem_ctrl.wrQLenPdf::39                       0                       # What write queue length does an incoming req see
system.mem_ctrl.wrQLenPdf::40                       0                       # What write queue length does an incoming req see
system.mem_ctrl.wrQLenPdf::41                       0                       # What write queue length does an incoming req see
system.mem_ctrl.wrQLenPdf::42                       0                       # What write queue length does an incoming req see
system.mem_ctrl.wrQLenPdf::43                       0                       # What write queue length does an incoming req see
system.mem_ctrl.wrQLenPdf::44                       0                       # What write queue length does an incoming req see
system.mem_ctrl.wrQLenPdf::45                       0                       # What write queue length does an incoming req see
system.mem_ctrl.wrQLenPdf::46                       0                       # What write queue length does an incoming req see
system.mem_ctrl.wrQLenPdf::47                       0                       # What write queue length does an incoming req see
system.mem_ctrl.wrQLenPdf::48                       0                       # What write queue length does an incoming req see
system.mem_ctrl.wrQLenPdf::49                       0                       # What write queue length does an incoming req see
system.mem_ctrl.wrQLenPdf::50                       0                       # What write queue length does an incoming req see
system.mem_ctrl.wrQLenPdf::51                       0                       # What write queue length does an incoming req see
system.mem_ctrl.wrQLenPdf::52                       0                       # What write queue length does an incoming req see
system.mem_ctrl.wrQLenPdf::53                       0                       # What write queue length does an incoming req see
system.mem_ctrl.wrQLenPdf::54                       0                       # What write queue length does an incoming req see
system.mem_ctrl.wrQLenPdf::55                       0                       # What write queue length does an incoming req see
system.mem_ctrl.wrQLenPdf::56                       0                       # What write queue length does an incoming req see
system.mem_ctrl.wrQLenPdf::57                       0                       # What write queue length does an incoming req see
system.mem_ctrl.wrQLenPdf::58                       0                       # What write queue length does an incoming req see
system.mem_ctrl.wrQLenPdf::59                       0                       # What write queue length does an incoming req see
system.mem_ctrl.wrQLenPdf::60                       0                       # What write queue length does an incoming req see
system.mem_ctrl.wrQLenPdf::61                       0                       # What write queue length does an incoming req see
system.mem_ctrl.wrQLenPdf::62                       0                       # What write queue length does an incoming req see
system.mem_ctrl.wrQLenPdf::63                       0                       # What write queue length does an incoming req see
system.mem_ctrl.bytesPerActivate::samples          180                       # Bytes accessed per row activation
system.mem_ctrl.bytesPerActivate::mean            384                       # Bytes accessed per row activation
system.mem_ctrl.bytesPerActivate::gmean    241.504609                       # Bytes accessed per row activation
system.mem_ctrl.bytesPerActivate::stdev    349.627351                       # Bytes accessed per row activation
system.mem_ctrl.bytesPerActivate::0-127            41     22.78%     22.78% # Bytes accessed per row activation
system.mem_ctrl.bytesPerActivate::128-255           47     26.11%     48.89% # Bytes accessed per row activation
system.mem_ctrl.bytesPerActivate::256-383           27     15.00%     63.89% # Bytes accessed per row activation
system.mem_ctrl.bytesPerActivate::384-511           10      5.56%     69.44% # Bytes accessed per row activation
system.mem_ctrl.bytesPerActivate::512-639            6      3.33%     72.78% # Bytes accessed per row activation
system.mem_ctrl.bytesPerActivate::640-767            6      3.33%     76.11% # Bytes accessed per row activation
system.mem_ctrl.bytesPerActivate::768-895           12      6.67%     82.78% # Bytes accessed per row activation
system.mem_ctrl.bytesPerActivate::896-1023            4      2.22%     85.00% # Bytes accessed per row activation
system.mem_ctrl.bytesPerActivate::1024-1151           27     15.00%    100.00% # Bytes accessed per row activation
system.mem_ctrl.bytesPerActivate::total           180                       # Bytes accessed per row activation
system.mem_ctrl.rdPerTurnAround::samples           28                       # Reads before turning the bus around for writes
system.mem_ctrl.rdPerTurnAround::mean       21.392857                       # Reads before turning the bus around for writes
system.mem_ctrl.rdPerTurnAround::gmean      17.577170                       # Reads before turning the bus around for writes
system.mem_ctrl.rdPerTurnAround::stdev      27.202041                       # Reads before turning the bus around for writes
system.mem_ctrl.rdPerTurnAround::8-15               9     32.14%     32.14% # Reads before turning the bus around for writes
system.mem_ctrl.rdPerTurnAround::16-23             18     64.29%     96.43% # Reads before turning the bus around for writes
system.mem_ctrl.rdPerTurnAround::160-167            1      3.57%    100.00% # Reads before turning the bus around for writes
system.mem_ctrl.rdPerTurnAround::total             28                       # Reads before turning the bus around for writes
system.mem_ctrl.wrPerTurnAround::samples           28                       # Writes before turning the bus around for reads
system.mem_ctrl.wrPerTurnAround::mean       16.785714                       # Writes before turning the bus around for reads
system.mem_ctrl.wrPerTurnAround::gmean      16.751973                       # Writes before turning the bus around for reads
system.mem_ctrl.wrPerTurnAround::stdev       1.100745                       # Writes before turning the bus around for reads
system.mem_ctrl.wrPerTurnAround::16                18     64.29%     64.29% # Writes before turning the bus around for reads
system.mem_ctrl.wrPerTurnAround::18                 8     28.57%     92.86% # Writes before turning the bus around for reads
system.mem_ctrl.wrPerTurnAround::19                 2      7.14%    100.00% # Writes before turning the bus around for reads
system.mem_ctrl.wrPerTurnAround::total             28                       # Writes before turning the bus around for reads
system.mem_ctrl.totQLat                      10522500                       # Total ticks spent queuing
system.mem_ctrl.totMemAccLat                 22091250                       # Total ticks spent from burst creation until serviced by the DRAM
system.mem_ctrl.totBusLat                     3085000                       # Total ticks spent in databus transfers
system.mem_ctrl.avgQLat                      17054.29                       # Average queueing delay per DRAM burst
system.mem_ctrl.avgBusLat                     5000.00                       # Average bus latency per DRAM burst
system.mem_ctrl.avgMemAccLat                 35804.29                       # Average memory access latency per DRAM burst
system.mem_ctrl.avgRdBW                        365.40                       # Average DRAM read bandwidth in MiByte/s
system.mem_ctrl.avgWrBW                        278.34                       # Average achieved write bandwidth in MiByte/s
system.mem_ctrl.avgRdBWSys                    1830.53                       # Average system read bandwidth in MiByte/s
system.mem_ctrl.avgWrBWSys                    1754.73                       # Average system write bandwidth in MiByte/s
system.mem_ctrl.peakBW                       12800.00                       # Theoretical peak bandwidth in MiByte/s
system.mem_ctrl.busUtil                          5.03                       # Data bus utilization in percentage
system.mem_ctrl.busUtilRead                      2.85                       # Data bus utilization in percentage for reads
system.mem_ctrl.busUtilWrite                     2.17                       # Data bus utilization in percentage for writes
system.mem_ctrl.avgRdQLen                        1.00                       # Average read queue length when enqueuing
system.mem_ctrl.avgWrQLen                       22.19                       # Average write queue length when enqueuing
system.mem_ctrl.readRowHits                       465                       # Number of row buffer hits during reads
system.mem_ctrl.writeRowHits                      438                       # Number of row buffer hits during writes
system.mem_ctrl.readRowHitRate                  75.36                       # Row buffer hit rate for reads
system.mem_ctrl.writeRowHitRate                 87.25                       # Row buffer hit rate for writes
system.mem_ctrl.avgGap                       17849.52                       # Average gap between requests
system.mem_ctrl.pageHitRate                     80.70                       # Row buffer hit rate, read and write combined
system.mem_ctrl_0.actEnergy                    535500                       # Energy for activate commands per rank (pJ)
system.mem_ctrl_0.preEnergy                    277035                       # Energy for precharge commands per rank (pJ)
system.mem_ctrl_0.readEnergy                  2177700                       # Energy for read commands per rank (pJ)
system.mem_ctrl_0.writeEnergy                 1273680                       # Energy for write commands per rank (pJ)
system.mem_ctrl_0.refreshEnergy          8604960.000000                       # Energy for refresh commands per rank (pJ)
system.mem_ctrl_0.actBackEnergy              10662990                       # Energy for active background per rank (pJ)
system.mem_ctrl_0.preBackEnergy                274080                       # Energy for precharge background per rank (pJ)
system.mem_ctrl_0.actPowerDownEnergy         27483120                       # Energy for active power-down per rank (pJ)
system.mem_ctrl_0.prePowerDownEnergy          7297440                       # Energy for precharge power-down per rank (pJ)
system.mem_ctrl_0.selfRefreshEnergy           1679940                       # Energy for self refresh per rank (pJ)
system.mem_ctrl_0.totalEnergy                60266445                       # Total energy per rank (pJ)
system.mem_ctrl_0.averagePower             557.661192                       # Core power per rank (mW)
system.mem_ctrl_0.totalIdleTime              83919750                       # Total Idle time Per DRAM Rank
system.mem_ctrl_0.memoryStateTime::IDLE        337000                       # Time in different power states
system.mem_ctrl_0.memoryStateTime::REF        3646000                       # Time in different power states
system.mem_ctrl_0.memoryStateTime::SREF       4698250                       # Time in different power states
system.mem_ctrl_0.memoryStateTime::PRE_PDN     19001500                       # Time in different power states
system.mem_ctrl_0.memoryStateTime::ACT       20128750                       # Time in different power states
system.mem_ctrl_0.memoryStateTime::ACT_PDN     60257500                       # Time in different power states
system.mem_ctrl_1.actEnergy                    778260                       # Energy for activate commands per rank (pJ)
system.mem_ctrl_1.preEnergy                    406065                       # Energy for precharge commands per rank (pJ)
system.mem_ctrl_1.readEnergy                  2227680                       # Energy for read commands per rank (pJ)
system.mem_ctrl_1.writeEnergy                 1179720                       # Energy for write commands per rank (pJ)
system.mem_ctrl_1.refreshEnergy          9219600.000000                       # Energy for refresh commands per rank (pJ)
system.mem_ctrl_1.actBackEnergy               9727050                       # Energy for active background per rank (pJ)
system.mem_ctrl_1.preBackEnergy                459840                       # Energy for precharge background per rank (pJ)
system.mem_ctrl_1.actPowerDownEnergy         31652100                       # Energy for active power-down per rank (pJ)
system.mem_ctrl_1.prePowerDownEnergy          4824960                       # Energy for precharge power-down per rank (pJ)
system.mem_ctrl_1.selfRefreshEnergy      1959780.000000                       # Energy for self refresh per rank (pJ)
system.mem_ctrl_1.totalEnergy                62435055                       # Total energy per rank (pJ)
system.mem_ctrl_1.averagePower             577.727908                       # Core power per rank (mW)
system.mem_ctrl_1.totalIdleTime              84882750                       # Total Idle time Per DRAM Rank
system.mem_ctrl_1.memoryStateTime::IDLE        756000                       # Time in different power states
system.mem_ctrl_1.memoryStateTime::REF        3912000                       # Time in different power states
system.mem_ctrl_1.memoryStateTime::SREF       3564250                       # Time in different power states
system.mem_ctrl_1.memoryStateTime::PRE_PDN     12565000                       # Time in different power states
system.mem_ctrl_1.memoryStateTime::ACT       17858000                       # Time in different power states
system.mem_ctrl_1.memoryStateTime::ACT_PDN     69413750                       # Time in different power states
system.pwrStateResidencyTicks::UNDEFINED    108069000                       # Cumulative time (in ticks) in various power states
system.cache.pwrStateResidencyTicks::UNDEFINED    108069000                       # Cumulative time (in ticks) in various power states
system.cache.hits                                5427                       # Number of hits
system.cache.misses                              3091                       # Number of misses
system.cache.missLatency::samples                3091                       # Ticks for misses to the cache
system.cache.missLatency::mean           32206.729214                       # Ticks for misses to the cache
system.cache.missLatency::gmean          28452.482730                       # Ticks for misses to the cache
system.cache.missLatency::stdev          26287.721549                       # Ticks for misses to the cache
system.cache.missLatency::0-65535                2936     94.99%     94.99% # Ticks for misses to the cache
system.cache.missLatency::65536-131071            135      4.37%     99.35% # Ticks for misses to the cache
system.cache.missLatency::131072-196607            10      0.32%     99.68% # Ticks for misses to the cache
system.cache.missLatency::196608-262143             2      0.06%     99.74% # Ticks for misses to the cache
system.cache.missLatency::262144-327679             5      0.16%     99.90% # Ticks for misses to the cache
system.cache.missLatency::327680-393215             1      0.03%     99.94% # Ticks for misses to the cache
system.cache.missLatency::393216-458751             0      0.00%     99.94% # Ticks for misses to the cache
system.cache.missLatency::458752-524287             0      0.00%     99.94% # Ticks for misses to the cache
system.cache.missLatency::524288-589823             0      0.00%     99.94% # Ticks for misses to the cache
system.cache.missLatency::589824-655359             2      0.06%    100.00% # Ticks for misses to the cache
system.cache.missLatency::655360-720895             0      0.00%    100.00% # Ticks for misses to the cache
system.cache.missLatency::720896-786431             0      0.00%    100.00% # Ticks for misses to the cache
system.cache.missLatency::786432-851967             0      0.00%    100.00% # Ticks for misses to the cache
system.cache.missLatency::851968-917503             0      0.00%    100.00% # Ticks for misses to the cache
system.cache.missLatency::917504-983039             0      0.00%    100.00% # Ticks for misses to the cache
system.cache.missLatency::983040-1.04858e+06            0      0.00%    100.00% # Ticks for misses to the cache
system.cache.missLatency::total                  3091                       # Ticks for misses to the cache
system.cache.hitRatio                        0.637121                       # The ratio of hits to the total accesses to the cache
system.cpu.dtb.fetch_hits                           0                       # ITB hits
system.cpu.dtb.fetch_misses                         0                       # ITB misses
system.cpu.dtb.fetch_acv                            0                       # ITB acv
system.cpu.dtb.fetch_accesses                       0                       # ITB accesses
system.cpu.dtb.read_hits                         1190                       # DTB read hits
system.cpu.dtb.read_misses                          7                       # DTB read misses
system.cpu.dtb.read_acv                             0                       # DTB read access violations
system.cpu.dtb.read_accesses                     1197                       # DTB read accesses
system.cpu.dtb.write_hits                         865                       # DTB write hits
system.cpu.dtb.write_misses                         3                       # DTB write misses
system.cpu.dtb.write_acv                            0                       # DTB write access violations
system.cpu.dtb.write_accesses                     868                       # DTB write accesses
system.cpu.dtb.data_hits                         2055                       # DTB hits
system.cpu.dtb.data_misses                         10                       # DTB misses
system.cpu.dtb.data_acv                             0                       # DTB access violations
system.cpu.dtb.data_accesses                     2065                       # DTB accesses
system.cpu.itb.fetch_hits                        6464                       # ITB hits
system.cpu.itb.fetch_misses                        17                       # ITB misses
system.cpu.itb.fetch_acv                            0                       # ITB acv
system.cpu.itb.fetch_accesses                    6481                       # ITB accesses
system.cpu.itb.read_hits                            0                       # DTB read hits
system.cpu.itb.read_misses                          0                       # DTB read misses
system.cpu.itb.read_acv                             0                       # DTB read access violations
system.cpu.itb.read_accesses                        0                       # DTB read accesses
system.cpu.itb.write_hits                           0                       # DTB write hits
system.cpu.itb.write_misses                         0                       # DTB write misses
system.cpu.itb.write_acv                            0                       # DTB write access violations
system.cpu.itb.write_accesses                       0                       # DTB write accesses
system.cpu.itb.data_hits                            0                       # DTB hits
system.cpu.itb.data_misses                          0                       # DTB misses
system.cpu.itb.data_acv                             0                       # DTB access violations
system.cpu.itb.data_accesses                        0                       # DTB accesses
system.cpu.workload.numSyscalls                    17                       # Number of system calls
system.cpu.pwrStateResidencyTicks::ON       108069000                       # Cumulative time (in ticks) in various power states
system.cpu.numCycles                           108069                       # number of cpu cycles simulated
system.cpu.numWorkItemsStarted                      0                       # number of work items this cpu started
system.cpu.numWorkItemsCompleted                    0                       # number of work items this cpu completed
system.cpu.committedInsts                        6453                       # Number of instructions committed
system.cpu.committedOps                          6453                       # Number of ops (including micro ops) committed
system.cpu.num_int_alu_accesses                  6380                       # Number of integer alu accesses
system.cpu.num_fp_alu_accesses                     10                       # Number of float alu accesses
system.cpu.num_vec_alu_accesses                     0                       # Number of vector alu accesses
system.cpu.num_func_calls                         251                       # number of times a function call or return occured
system.cpu.num_conditional_control_insts          759                       # number of instructions that are conditional controls
system.cpu.num_int_insts                         6380                       # number of integer instructions
system.cpu.num_fp_insts                            10                       # number of float instructions
system.cpu.num_vec_insts                            0                       # number of vector instructions
system.cpu.num_int_register_reads                8392                       # number of times the integer registers were read
system.cpu.num_int_register_writes               4621                       # number of times the integer registers were written
system.cpu.num_fp_register_reads                    8                       # number of times the floating registers were read
system.cpu.num_fp_register_writes                   2                       # number of times the floating registers were written
system.cpu.num_vec_register_reads                   0                       # number of times the vector registers were read
system.cpu.num_vec_register_writes                  0                       # number of times the vector registers were written
system.cpu.num_mem_refs                          2065                       # number of memory refs
system.cpu.num_load_insts                        1197                       # Number of load instructions
system.cpu.num_store_insts                        868                       # Number of store instructions
system.cpu.num_idle_cycles                          0                       # Number of idle cycles
system.cpu.num_busy_cycles                     108069                       # Number of busy cycles
system.cpu.not_idle_fraction                        1                       # Percentage of non-idle cycles
system.cpu.idle_fraction                            0                       # Percentage of idle cycles
system.cpu.Branches                              1060                       # Number of branches fetched
system.cpu.op_class::No_OpClass                    19      0.29%      0.29% # Class of executed instruction
system.cpu.op_class::IntAlu                      4376     67.71%     68.00% # Class of executed instruction
system.cpu.op_class::IntMult                        1      0.02%     68.02% # Class of executed instruction
system.cpu.op_class::IntDiv                         0      0.00%     68.02% # Class of executed instruction
system.cpu.op_class::FloatAdd                       2      0.03%     68.05% # Class of executed instruction
system.cpu.op_class::FloatCmp                       0      0.00%     68.05% # Class of executed instruction
system.cpu.op_class::FloatCvt                       0      0.00%     68.05% # Class of executed instruction
system.cpu.op_class::FloatMult                      0      0.00%     68.05% # Class of executed instruction
system.cpu.op_class::FloatMultAcc                   0      0.00%     68.05% # Class of executed instruction
system.cpu.op_class::FloatDiv                       0      0.00%     68.05% # Class of executed instruction
system.cpu.op_class::FloatMisc                      0      0.00%     68.05% # Class of executed instruction
system.cpu.op_class::FloatSqrt                      0      0.00%     68.05% # Class of executed instruction
system.cpu.op_class::SimdAdd                        0      0.00%     68.05% # Class of executed instruction
system.cpu.op_class::SimdAddAcc                     0      0.00%     68.05% # Class of executed instruction
system.cpu.op_class::SimdAlu                        0      0.00%     68.05% # Class of executed instruction
system.cpu.op_class::SimdCmp                        0      0.00%     68.05% # Class of executed instruction
system.cpu.op_class::SimdCvt                        0      0.00%     68.05% # Class of executed instruction
system.cpu.op_class::SimdMisc                       0      0.00%     68.05% # Class of executed instruction
system.cpu.op_class::SimdMult                       0      0.00%     68.05% # Class of executed instruction
system.cpu.op_class::SimdMultAcc                    0      0.00%     68.05% # Class of executed instruction
system.cpu.op_class::SimdShift                      0      0.00%     68.05% # Class of executed instruction
system.cpu.op_class::SimdShiftAcc                   0      0.00%     68.05% # Class of executed instruction
system.cpu.op_class::SimdSqrt                       0      0.00%     68.05% # Class of executed instruction
system.cpu.op_class::SimdFloatAdd                   0      0.00%     68.05% # Class of executed instruction
system.cpu.op_class::SimdFloatAlu                   0      0.00%     68.05% # Class of executed instruction
system.cpu.op_class::SimdFloatCmp                   0      0.00%     68.05% # Class of executed instruction
system.cpu.op_class::SimdFloatCvt                   0      0.00%     68.05% # Class of executed instruction
system.cpu.op_class::SimdFloatDiv                   0      0.00%     68.05% # Class of executed instruction
system.cpu.op_class::SimdFloatMisc                  0      0.00%     68.05% # Class of executed instruction
system.cpu.op_class::SimdFloatMult                  0      0.00%     68.05% # Class of executed instruction
system.cpu.op_class::SimdFloatMultAcc               0      0.00%     68.05% # Class of executed instruction
system.cpu.op_class::SimdFloatSqrt                  0      0.00%     68.05% # Class of executed instruction
system.cpu.op_class::MemRead                     1196     18.51%     86.55% # Class of executed instruction
system.cpu.op_class::MemWrite                     861     13.32%     99.88% # Class of executed instruction
system.cpu.op_class::FloatMemRead                   1      0.02%     99.89% # Class of executed instruction
system.cpu.op_class::FloatMemWrite                  7      0.11%    100.00% # Class of executed instruction
system.cpu.op_class::IprAccess                      0      0.00%    100.00% # Class of executed instruction
system.cpu.op_class::InstPrefetch                   0      0.00%    100.00% # Class of executed instruction
system.cpu.op_class::total                       6463                       # Class of executed instruction
system.membus.snoop_filter.tot_requests             0                       # Total number of requests made to the snoop filter.
system.membus.snoop_filter.hit_single_requests            0                       # Number of requests hitting in the snoop filter with a single holder of the requested data.
system.membus.snoop_filter.hit_multi_requests            0                       # Number of requests hitting in the snoop filter with multiple (>1) holders of the requested data.
system.membus.snoop_filter.tot_snoops               0                       # Total number of snoops made to the snoop filter.
system.membus.snoop_filter.hit_single_snoops            0                       # Number of snoops hitting in the snoop filter with a single holder of the requested data.
system.membus.snoop_filter.hit_multi_snoops            0                       # Number of snoops hitting in the snoop filter with multiple (>1) holders of the requested data.
system.membus.pwrStateResidencyTicks::UNDEFINED    108069000                       # Cumulative time (in ticks) in various power states
system.membus.trans_dist::ReadReq                3091                       # Transaction distribution
system.membus.trans_dist::ReadResp               3091                       # Transaction distribution
system.membus.trans_dist::WritebackDirty         2963                       # Transaction distribution
system.membus.pkt_count_system.cache.mem_side::system.mem_ctrl.port         9145                       # Packet count per connected master and slave (bytes)
system.membus.pkt_count::total                   9145                       # Packet count per connected master and slave (bytes)
system.membus.pkt_size_system.cache.mem_side::system.mem_ctrl.port       387456                       # Cumulative packet size per connected master and slave (bytes)
system.membus.pkt_size::total                  387456                       # Cumulative packet size per connected master and slave (bytes)
system.membus.snoops                                0                       # Total snoops (count)
system.membus.snoopTraffic                          0                       # Total snoop traffic (bytes)
system.membus.snoop_fanout::samples              3091                       # Request fanout histogram
system.membus.snoop_fanout::mean                    0                       # Request fanout histogram
system.membus.snoop_fanout::stdev                   0                       # Request fanout histogram
system.membus.snoop_fanout::underflows              0      0.00%      0.00% # Request fanout histogram
system.membus.snoop_fanout::0                    3091    100.00%    100.00% # Request fanout histogram
system.membus.snoop_fanout::overflows               0      0.00%    100.00% # Request fanout histogram
system.membus.snoop_fanout::min_value               0                       # Request fanout histogram
system.membus.snoop_fanout::max_value               0                       # Request fanout histogram
system.membus.snoop_fanout::total                3091                       # Request fanout histogram
system.membus.reqLayer0.occupancy            17906000                       # Layer occupancy (ticks)
system.membus.reqLayer0.utilization              16.6                       # Layer utilization (%)
system.membus.respLayer0.occupancy           15652750                       # Layer occupancy (ticks)
system.membus.respLayer0.utilization             14.5                       # Layer utilization (%)

---------- End Simulation Statistics   ----------
