
---------- Begin Simulation Statistics ----------
sim_seconds                                  0.000064                       # Number of seconds simulated
sim_ticks                                    63783000                       # Number of ticks simulated
final_tick                                   63783000                       # Number of ticks from beginning of simulation (restored from checkpoints and never reset)
sim_freq                                 1000000000000                       # Frequency of simulated ticks
host_inst_rate                                 740487                       # Simulator instruction rate (inst/s)
host_op_rate                                   739391                       # Simulator op (including micro ops) rate (op/s)
host_tick_rate                             3929218259                       # Simulator tick rate (ticks/s)
host_mem_usage                                8484348                       # Number of bytes of host memory used
host_seconds                                     0.02                       # Real time elapsed on the host
sim_insts                                       11987                       # Number of instructions simulated
sim_ops                                         11987                       # Number of ops (including micro ops) simulated
system.clk_domain.voltage_domain.voltage            1                       # Voltage in Volts
system.clk_domain.clock                          1000                       # Clock period in ticks
system.mem_ctrl.pwrStateResidencyTicks::UNDEFINED     63783000                       # Cumulative time (in ticks) in various power states
system.mem_ctrl.bytes_read::cpu.inst            26048                       # Number of bytes read from this memory
system.mem_ctrl.bytes_read::cpu.data            22208                       # Number of bytes read from this memory
system.mem_ctrl.bytes_read::total               48256                       # Number of bytes read from this memory
system.mem_ctrl.bytes_inst_read::cpu.inst        26048                       # Number of instructions bytes read from this memory
system.mem_ctrl.bytes_inst_read::total          26048                       # Number of instructions bytes read from this memory
system.mem_ctrl.bytes_written::writebacks        40064                       # Number of bytes written to this memory
system.mem_ctrl.bytes_written::total            40064                       # Number of bytes written to this memory
system.mem_ctrl.num_reads::cpu.inst               407                       # Number of read requests responded to by this memory
system.mem_ctrl.num_reads::cpu.data               347                       # Number of read requests responded to by this memory
system.mem_ctrl.num_reads::total                  754                       # Number of read requests responded to by this memory
system.mem_ctrl.num_writes::writebacks            626                       # Number of write requests responded to by this memory
system.mem_ctrl.num_writes::total                 626                       # Number of write requests responded to by this memory
system.mem_ctrl.bw_read::cpu.inst           408384679                       # Total read bandwidth from this memory (bytes/s)
system.mem_ctrl.bw_read::cpu.data           348180550                       # Total read bandwidth from this memory (bytes/s)
system.mem_ctrl.bw_read::total              756565229                       # Total read bandwidth from this memory (bytes/s)
system.mem_ctrl.bw_inst_read::cpu.inst      408384679                       # Instruction read bandwidth from this memory (bytes/s)
system.mem_ctrl.bw_inst_read::total         408384679                       # Instruction read bandwidth from this memory (bytes/s)
system.mem_ctrl.bw_write::writebacks        628129752                       # Write bandwidth from this memory (bytes/s)
system.mem_ctrl.bw_write::total             628129752                       # Write bandwidth from this memory (bytes/s)
system.mem_ctrl.bw_total::writebacks        628129752                       # Total bandwidth to/from this memory (bytes/s)
system.mem_ctrl.bw_total::cpu.inst          408384679                       # Total bandwidth to/from this memory (bytes/s)
system.mem_ctrl.bw_total::cpu.data          348180550                       # Total bandwidth to/from this memory (bytes/s)
system.mem_ctrl.bw_total::total            1384694981                       # Total bandwidth to/from this memory (bytes/s)
system.mem_ctrl.readReqs                          754                       # Number of read requests accepted
system.mem_ctrl.writeReqs                         626                       # Number of write requests accepted
system.mem_ctrl.readBursts                        754                       # Number of DRAM read bursts, including those serviced by the write queue
system.mem_ctrl.writeBursts                       626                       # Number of DRAM write bursts, including those merged in the write queue
system.mem_ctrl.bytesReadDRAM                   43520                       # Total number of bytes read from DRAM
system.mem_ctrl.bytesReadWrQ                     4736                       # Total number of bytes read from write queue
system.mem_ctrl.bytesWritten                    38080                       # Total number of bytes written to DRAM
system.mem_ctrl.bytesReadSys                    48256                       # Total read bytes from the system interface side
system.mem_ctrl.bytesWrittenSys                 40064                       # Total written bytes from the system interface side
system.mem_ctrl.servicedByWrQ                      74                       # Number of DRAM read bursts serviced by the write queue
system.mem_ctrl.mergedWrBursts                     12                       # Number of DRAM write bursts merged with an existing one
system.mem_ctrl.neitherReadNorWriteReqs             0                       # Number of requests that are neither read nor write
system.mem_ctrl.perBankRdBursts::0                 77                       # Per bank write bursts
system.mem_ctrl.perBankRdBursts::1                 21                       # Per bank write bursts
system.mem_ctrl.perBankRdBursts::2                126                       # Per bank write bursts
system.mem_ctrl.perBankRdBursts::3                100                       # Per bank write bursts
system.mem_ctrl.perBankRdBursts::4                 81                       # Per bank write bursts
system.mem_ctrl.perBankRdBursts::5                 24                       # Per bank write bursts
system.mem_ctrl.perBankRdBursts::6                 44                       # Per bank write bursts
system.mem_ctrl.perBankRdBursts::7                  4                       # Per bank write bursts
system.mem_ctrl.perBankRdBursts::8                  3                       # Per bank write bursts
system.mem_ctrl.perBankRdBursts::9                 81                       # Per bank write bursts
system.mem_ctrl.perBankRdBursts::10                 6                       # Per bank write bursts
system.mem_ctrl.perBankRdBursts::11                12                       # Per bank write bursts
system.mem_ctrl.perBankRdBursts::12                 4                       # Per bank write bursts
system.mem_ctrl.perBankRdBursts::13                28                       # Per bank write bursts
system.mem_ctrl.perBankRdBursts::14                49                       # Per bank write bursts
system.mem_ctrl.perBankRdBursts::15                20                       # Per bank write bursts
system.mem_ctrl.perBankWrBursts::0                 67                       # Per bank write bursts
system.mem_ctrl.perBankWrBursts::1                 21                       # Per bank write bursts
system.mem_ctrl.perBankWrBursts::2                123                       # Per bank write bursts
system.mem_ctrl.perBankWrBursts::3                 92                       # Per bank write bursts
system.mem_ctrl.perBankWrBursts::4                 75                       # Per bank write bursts
system.mem_ctrl.perBankWrBursts::5                 24                       # Per bank write bursts
system.mem_ctrl.perBankWrBursts::6                 34                       # Per bank write bursts
system.mem_ctrl.perBankWrBursts::7                  2                       # Per bank write bursts
system.mem_ctrl.perBankWrBursts::8                  1                       # Per bank write bursts
system.mem_ctrl.perBankWrBursts::9                 82                       # Per bank write bursts
system.mem_ctrl.perBankWrBursts::10                 6                       # Per bank write bursts
system.mem_ctrl.perBankWrBursts::11                12                       # Per bank write bursts
system.mem_ctrl.perBankWrBursts::12                 3                       # Per bank write bursts
system.mem_ctrl.perBankWrBursts::13                21                       # Per bank write bursts
system.mem_ctrl.perBankWrBursts::14                21                       # Per bank write bursts
system.mem_ctrl.perBankWrBursts::15                11                       # Per bank write bursts
system.mem_ctrl.numRdRetry                          0                       # Number of times read queue was full causing retry
system.mem_ctrl.numWrRetry                          0                       # Number of times write queue was full causing retry
system.mem_ctrl.totGap                       63775000                       # Total gap between requests
system.mem_ctrl.readPktSize::0                      0                       # Read request sizes (log2)
system.mem_ctrl.readPktSize::1                      0                       # Read request sizes (log2)
system.mem_ctrl.readPktSize::2                      0                       # Read request sizes (log2)
system.mem_ctrl.readPktSize::3                      0                       # Read request sizes (log2)
system.mem_ctrl.readPktSize::4                      0                       # Read request sizes (log2)
system.mem_ctrl.readPktSize::5                      0                       # Read request sizes (log2)
system.mem_ctrl.readPktSize::6                    754                       # Read request sizes (log2)
system.mem_ctrl.writePktSize::0                     0                       # Write request sizes (log2)
system.mem_ctrl.writePktSize::1                     0                       # Write request sizes (log2)
system.mem_ctrl.writePktSize::2                     0                       # Write request sizes (log2)
system.mem_ctrl.writePktSize::3                     0                       # Write request sizes (log2)
system.mem_ctrl.writePktSize::4                     0                       # Write request sizes (log2)
system.mem_ctrl.writePktSize::5                     0                       # Write request sizes (log2)
system.mem_ctrl.writePktSize::6                   626                       # Write request sizes (log2)
system.mem_ctrl.rdQLenPdf::0                      680                       # What read queue length does an incoming req see
system.mem_ctrl.rdQLenPdf::1                        0                       # What read queue length does an incoming req see
system.mem_ctrl.rdQLenPdf::2                        0                       # What read queue length does an incoming req see
system.mem_ctrl.rdQLenPdf::3                        0                       # What read queue length does an incoming req see
system.mem_ctrl.rdQLenPdf::4                        0                       # What read queue length does an incoming req see
system.mem_ctrl.rdQLenPdf::5                        0                       # What read queue length does an incoming req see
system.mem_ctrl.rdQLenPdf::6                        0                       # What read queue length does an incoming req see
system.mem_ctrl.rdQLenPdf::7                        0                       # What read queue length does an incoming req see
system.mem_ctrl.rdQLenPdf::8                        0                       # What read queue length does an incoming req see
system.mem_ctrl.rdQLenPdf::9                        0                       # What read queue length does an incoming req see
system.mem_ctrl.rdQLenPdf::10                       0                       # What read queue length does an incoming req see
system.mem_ctrl.rdQLenPdf::11                       0                       # What read queue length does an incoming req see
system.mem_ctrl.rdQLenPdf::12                       0                       # What read queue length does an incoming req see
system.mem_ctrl.rdQLenPdf::13                       0                       # What read queue length does an incoming req see
system.mem_ctrl.rdQLenPdf::14                       0                       # What read queue length does an incoming req see
system.mem_ctrl.rdQLenPdf::15                       0                       # What read queue length does an incoming req see
system.mem_ctrl.rdQLenPdf::16                       0                       # What read queue length does an incoming req see
system.mem_ctrl.rdQLenPdf::17                       0                       # What read queue length does an incoming req see
system.mem_ctrl.rdQLenPdf::18                       0                       # What read queue length does an incoming req see
system.mem_ctrl.rdQLenPdf::19                       0                       # What read queue length does an incoming req see
system.mem_ctrl.rdQLenPdf::20                       0                       # What read queue length does an incoming req see
system.mem_ctrl.rdQLenPdf::21                       0                       # What read queue length does an incoming req see
system.mem_ctrl.rdQLenPdf::22                       0                       # What read queue length does an incoming req see
system.mem_ctrl.rdQLenPdf::23                       0                       # What read queue length does an incoming req see
system.mem_ctrl.rdQLenPdf::24                       0                       # What read queue length does an incoming req see
system.mem_ctrl.rdQLenPdf::25                       0                       # What read queue length does an incoming req see
system.mem_ctrl.rdQLenPdf::26                       0                       # What read queue length does an incoming req see
system.mem_ctrl.rdQLenPdf::27                       0                       # What read queue length does an incoming req see
system.mem_ctrl.rdQLenPdf::28                       0                       # What read queue length does an incoming req see
system.mem_ctrl.rdQLenPdf::29                       0                       # What read queue length does an incoming req see
system.mem_ctrl.rdQLenPdf::30                       0                       # What read queue length does an incoming req see
system.mem_ctrl.rdQLenPdf::31                       0                       # What read queue length does an incoming req see
system.mem_ctrl.wrQLenPdf::0                        1                       # What write queue length does an incoming req see
system.mem_ctrl.wrQLenPdf::1                        1                       # What write queue length does an incoming req see
system.mem_ctrl.wrQLenPdf::2                        1                       # What write queue length does an incoming req see
system.mem_ctrl.wrQLenPdf::3                        1                       # What write queue length does an incoming req see
system.mem_ctrl.wrQLenPdf::4                        1                       # What write queue length does an incoming req see
system.mem_ctrl.wrQLenPdf::5                        1                       # What write queue length does an incoming req see
system.mem_ctrl.wrQLenPdf::6                        1                       # What write queue length does an incoming req see
system.mem_ctrl.wrQLenPdf::7                        1                       # What write queue length does an incoming req see
system.mem_ctrl.wrQLenPdf::8                        1                       # What write queue length does an incoming req see
system.mem_ctrl.wrQLenPdf::9                        1                       # What write queue length does an incoming req see
system.mem_ctrl.wrQLenPdf::10                       1                       # What write queue length does an incoming req see
system.mem_ctrl.wrQLenPdf::11                       1                       # What write queue length does an incoming req see
system.mem_ctrl.wrQLenPdf::12                       1                       # What write queue length does an incoming req see
system.mem_ctrl.wrQLenPdf::13                       1                       # What write queue length does an incoming req see
system.mem_ctrl.wrQLenPdf::14                       1                       # What write queue length does an incoming req see
system.mem_ctrl.wrQLenPdf::15                       2                       # What write queue length does an incoming req see
system.mem_ctrl.wrQLenPdf::16                       2                       # What write queue length does an incoming req see
system.mem_ctrl.wrQLenPdf::17                      37                       # What write queue length does an incoming req see
system.mem_ctrl.wrQLenPdf::18                      38                       # What write queue length does an incoming req see
system.mem_ctrl.wrQLenPdf::19                      37                       # What write queue length does an incoming req see
system.mem_ctrl.wrQLenPdf::20                      37                       # What write queue length does an incoming req see
system.mem_ctrl.wrQLenPdf::21                      37                       # What write queue length does an incoming req see
system.mem_ctrl.wrQLenPdf::22                      37                       # What write queue length does an incoming req see
system.mem_ctrl.wrQLenPdf::23                      38                       # What write queue length does an incoming req see
system.mem_ctrl.wrQLenPdf::24                      38                       # What write queue length does an incoming req see
system.mem_ctrl.wrQLenPdf::25                      37                       # What write queue length does an incoming req see
system.mem_ctrl.wrQLenPdf::26                      37                       # What write queue length does an incoming req see
system.mem_ctrl.wrQLenPdf::27                      37                       # What write queue length does an incoming req see
system.mem_ctrl.wrQLenPdf::28                      37                       # What write queue length does an incoming req see
system.mem_ctrl.wrQLenPdf::29                      37                       # What write queue length does an incoming req see
system.mem_ctrl.wrQLenPdf::30                      37                       # What write queue length does an incoming req see
system.mem_ctrl.wrQLenPdf::31                      37                       # What write queue length does an incoming req see
system.mem_ctrl.wrQLenPdf::32                      37                       # What write queue length does an incoming req see
system.mem_ctrl.wrQLenPdf::33                       0                       # What write queue length does an incoming req see
system.mem_ctrl.wrQLenPdf::34                       0                       # What write queue length does an incoming req see
system.mem_ctrl.wrQLenPdf::35                       0                       # What write queue length does an incoming req see
system.mem_ctrl.wrQLenPdf::36                       0                       # What write queue length does an incoming req see
system.mem_ctrl.wrQLenPdf::37                       0                       # What write queue length does an incoming req see
system.mem_ctrl.wrQLenPdf::38                       0                       # What write queue length does an incoming req see
system.mem_ctrl.wrQLenPdf::39                       0                       # What write queue length does an incoming req see
system.mem_ctrl.wrQLenPdf::40                       0                       # What write queue length does an incoming req see
system.mem_ctrl.wrQLenPdf::41                       0                       # What write queue length does an incoming req see
system.mem_ctrl.wrQLenPdf::42                       0                       # What write queue length does an incoming req see
system.mem_ctrl.wrQLenPdf::43                       0                       # What write queue length does an incoming req see
system.mem_ctrl.wrQLenPdf::44                       0                       # What write queue length does an incoming req see
system.mem_ctrl.wrQLenPdf::45                       0                       # What write queue length does an incoming req see
system.mem_ctrl.wrQLenPdf::46                       0                       # What write queue length does an incoming req see
system.mem_ctrl.wrQLenPdf::47                       0                       # What write queue length does an incoming req see
system.mem_ctrl.wrQLenPdf::48                       0                       # What write queue length does an incoming req see
system.mem_ctrl.wrQLenPdf::49                       0                       # What write queue length does an incoming req see
system.mem_ctrl.wrQLenPdf::50                       0                       # What write queue length does an incoming req see
system.mem_ctrl.wrQLenPdf::51                       0                       # What write queue length does an incoming req see
system.mem_ctrl.wrQLenPdf::52                       0                       # What write queue length does an incoming req see
system.mem_ctrl.wrQLenPdf::53                       0                       # What write queue length does an incoming req see
system.mem_ctrl.wrQLenPdf::54                       0                       # What write queue length does an incoming req see
system.mem_ctrl.wrQLenPdf::55                       0                       # What write queue length does an incoming req see
system.mem_ctrl.wrQLenPdf::56                       0                       # What write queue length does an incoming req see
system.mem_ctrl.wrQLenPdf::57                       0                       # What write queue length does an incoming req see
system.mem_ctrl.wrQLenPdf::58                       0                       # What write queue length does an incoming req see
system.mem_ctrl.wrQLenPdf::59                       0                       # What write queue length does an incoming req see
system.mem_ctrl.wrQLenPdf::60                       0                       # What write queue length does an incoming req see
system.mem_ctrl.wrQLenPdf::61                       0                       # What write queue length does an incoming req see
system.mem_ctrl.wrQLenPdf::62                       0                       # What write queue length does an incoming req see
system.mem_ctrl.wrQLenPdf::63                       0                       # What write queue length does an incoming req see
system.mem_ctrl.bytesPerActivate::samples          229                       # Bytes accessed per row activation
system.mem_ctrl.bytesPerActivate::mean     347.947598                       # Bytes accessed per row activation
system.mem_ctrl.bytesPerActivate::gmean    223.064045                       # Bytes accessed per row activation
system.mem_ctrl.bytesPerActivate::stdev    321.130127                       # Bytes accessed per row activation
system.mem_ctrl.bytesPerActivate::0-127            58     25.33%     25.33% # Bytes accessed per row activation
system.mem_ctrl.bytesPerActivate::128-255           64     27.95%     53.28% # Bytes accessed per row activation
system.mem_ctrl.bytesPerActivate::256-383           23     10.04%     63.32% # Bytes accessed per row activation
system.mem_ctrl.bytesPerActivate::384-511           24     10.48%     73.80% # Bytes accessed per row activation
system.mem_ctrl.bytesPerActivate::512-639           18      7.86%     81.66% # Bytes accessed per row activation
system.mem_ctrl.bytesPerActivate::640-767            3      1.31%     82.97% # Bytes accessed per row activation
system.mem_ctrl.bytesPerActivate::768-895            9      3.93%     86.90% # Bytes accessed per row activation
system.mem_ctrl.bytesPerActivate::896-1023            3      1.31%     88.21% # Bytes accessed per row activation
system.mem_ctrl.bytesPerActivate::1024-1151           27     11.79%    100.00% # Bytes accessed per row activation
system.mem_ctrl.bytesPerActivate::total           229                       # Bytes accessed per row activation
system.mem_ctrl.rdPerTurnAround::samples           37                       # Reads before turning the bus around for writes
system.mem_ctrl.rdPerTurnAround::mean       18.324324                       # Reads before turning the bus around for writes
system.mem_ctrl.rdPerTurnAround::gmean      15.188372                       # Reads before turning the bus around for writes
system.mem_ctrl.rdPerTurnAround::stdev      24.183390                       # Reads before turning the bus around for writes
system.mem_ctrl.rdPerTurnAround::8-15              24     64.86%     64.86% # Reads before turning the bus around for writes
system.mem_ctrl.rdPerTurnAround::16-23             12     32.43%     97.30% # Reads before turning the bus around for writes
system.mem_ctrl.rdPerTurnAround::160-167            1      2.70%    100.00% # Reads before turning the bus around for writes
system.mem_ctrl.rdPerTurnAround::total             37                       # Reads before turning the bus around for writes
system.mem_ctrl.wrPerTurnAround::samples           37                       # Writes before turning the bus around for reads
system.mem_ctrl.wrPerTurnAround::mean       16.081081                       # Writes before turning the bus around for reads
system.mem_ctrl.wrPerTurnAround::gmean      16.074486                       # Writes before turning the bus around for reads
system.mem_ctrl.wrPerTurnAround::stdev       0.493197                       # Writes before turning the bus around for reads
system.mem_ctrl.wrPerTurnAround::16                36     97.30%     97.30% # Writes before turning the bus around for reads
system.mem_ctrl.wrPerTurnAround::19                 1      2.70%    100.00% # Writes before turning the bus around for reads
system.mem_ctrl.wrPerTurnAround::total             37                       # Writes before turning the bus around for reads
system.mem_ctrl.totQLat                      11672750                       # Total ticks spent queuing
system.mem_ctrl.totMemAccLat                 24422750                       # Total ticks spent from burst creation until serviced by the DRAM
system.mem_ctrl.totBusLat                     3400000                       # Total ticks spent in databus transfers
system.mem_ctrl.avgQLat                      17165.81                       # Average queueing delay per DRAM burst
system.mem_ctrl.avgBusLat                     5000.00                       # Average bus latency per DRAM burst
system.mem_ctrl.avgMemAccLat                 35915.81                       # Average memory access latency per DRAM burst
system.mem_ctrl.avgRdBW                        682.31                       # Average DRAM read bandwidth in MiByte/s
system.mem_ctrl.avgWrBW                        597.02                       # Average achieved write bandwidth in MiByte/s
system.mem_ctrl.avgRdBWSys                     756.57                       # Average system read bandwidth in MiByte/s
system.mem_ctrl.avgWrBWSys                     628.13                       # Average system write bandwidth in MiByte/s
system.mem_ctrl.peakBW                       12800.00                       # Theoretical peak bandwidth in MiByte/s
system.mem_ctrl.busUtil                          9.99                       # Data bus utilization in percentage
system.mem_ctrl.busUtilRead                      5.33                       # Data bus utilization in percentage for reads
system.mem_ctrl.busUtilWrite                     4.66                       # Data bus utilization in percentage for writes
system.mem_ctrl.avgRdQLen                        1.00                       # Average read queue length when enqueuing
system.mem_ctrl.avgWrQLen                       21.93                       # Average write queue length when enqueuing
system.mem_ctrl.readRowHits                       512                       # Number of row buffer hits during reads
system.mem_ctrl.writeRowHits                      526                       # Number of row buffer hits during writes
system.mem_ctrl.readRowHitRate                  75.29                       # Row buffer hit rate for reads
system.mem_ctrl.writeRowHitRate                 85.67                       # Row buffer hit rate for writes
system.mem_ctrl.avgGap                       46213.77                       # Average gap between requests
system.mem_ctrl.pageHitRate                     80.22                       # Row buffer hit rate, read and write combined
system.mem_ctrl_0.actEnergy                   1313760                       # Energy for activate commands per rank (pJ)
system.mem_ctrl_0.preEnergy                    683100                       # Energy for precharge commands per rank (pJ)
system.mem_ctrl_0.readEnergy                  3405780                       # Energy for read commands per rank (pJ)
system.mem_ctrl_0.writeEnergy                 2286360                       # Energy for write commands per rank (pJ)
system.mem_ctrl_0.refreshEnergy          4917120.000000                       # Energy for refresh commands per rank (pJ)
system.mem_ctrl_0.actBackEnergy              13448010                       # Energy for active background per rank (pJ)
system.mem_ctrl_0.preBackEnergy                120000                       # Energy for precharge background per rank (pJ)
system.mem_ctrl_0.actPowerDownEnergy         14860470                       # Energy for active power-down per rank (pJ)
system.mem_ctrl_0.prePowerDownEnergy           534240                       # Energy for precharge power-down per rank (pJ)
system.mem_ctrl_0.selfRefreshEnergy                 0                       # Energy for self refresh per rank (pJ)
system.mem_ctrl_0.totalEnergy                41568840                       # Total energy per rank (pJ)
system.mem_ctrl_0.averagePower             651.715210                       # Core power per rank (mW)
system.mem_ctrl_0.totalIdleTime              33931250                       # Total Idle time Per DRAM Rank
system.mem_ctrl_0.memoryStateTime::IDLE         49000                       # Time in different power states
system.mem_ctrl_0.memoryStateTime::REF        2080000                       # Time in different power states
system.mem_ctrl_0.memoryStateTime::SREF             0                       # Time in different power states
system.mem_ctrl_0.memoryStateTime::PRE_PDN      1390250                       # Time in different power states
system.mem_ctrl_0.memoryStateTime::ACT       27685500                       # Time in different power states
system.mem_ctrl_0.memoryStateTime::ACT_PDN     32578250                       # Time in different power states
system.mem_ctrl_1.actEnergy                    378420                       # Energy for activate commands per rank (pJ)
system.mem_ctrl_1.preEnergy                    185955                       # Energy for precharge commands per rank (pJ)
system.mem_ctrl_1.readEnergy                  1449420                       # Energy for read commands per rank (pJ)
system.mem_ctrl_1.writeEnergy                  819540                       # Energy for write commands per rank (pJ)
system.mem_ctrl_1.refreshEnergy          4917120.000000                       # Energy for refresh commands per rank (pJ)
system.mem_ctrl_1.actBackEnergy               6373170                       # Energy for active background per rank (pJ)
system.mem_ctrl_1.preBackEnergy                263520                       # Energy for precharge background per rank (pJ)
system.mem_ctrl_1.actPowerDownEnergy         22026510                       # Energy for active power-down per rank (pJ)
system.mem_ctrl_1.prePowerDownEnergy           313920                       # Energy for precharge power-down per rank (pJ)
system.mem_ctrl_1.selfRefreshEnergy                 0                       # Energy for self refresh per rank (pJ)
system.mem_ctrl_1.totalEnergy                36727575                       # Total energy per rank (pJ)
system.mem_ctrl_1.averagePower             575.813981                       # Core power per rank (mW)
system.mem_ctrl_1.totalIdleTime              49125750                       # Total Idle time Per DRAM Rank
system.mem_ctrl_1.memoryStateTime::IDLE        450000                       # Time in different power states
system.mem_ctrl_1.memoryStateTime::REF        2080000                       # Time in different power states
system.mem_ctrl_1.memoryStateTime::SREF             0                       # Time in different power states
system.mem_ctrl_1.memoryStateTime::PRE_PDN       817750                       # Time in different power states
system.mem_ctrl_1.memoryStateTime::ACT       12127250                       # Time in different power states
system.mem_ctrl_1.memoryStateTime::ACT_PDN     48308000                       # Time in different power states
system.pwrStateResidencyTicks::UNDEFINED     63783000                       # Cumulative time (in ticks) in various power states
system.cache.pwrStateResidencyTicks::UNDEFINED     63783000                       # Cumulative time (in ticks) in various power states
system.cache.hits                               15985                       # Number of hits
system.cache.misses                               754                       # Number of misses
system.cache.missLatency::samples                 754                       # Ticks for misses to the cache
system.cache.missLatency::mean           62392.572944                       # Ticks for misses to the cache
system.cache.missLatency::gmean          56650.420375                       # Ticks for misses to the cache
system.cache.missLatency::stdev          34566.520707                       # Ticks for misses to the cache
system.cache.missLatency::0-32767                  74      9.81%      9.81% # Ticks for misses to the cache
system.cache.missLatency::32768-65535             505     66.98%     76.79% # Ticks for misses to the cache
system.cache.missLatency::65536-98303             134     17.77%     94.56% # Ticks for misses to the cache
system.cache.missLatency::98304-131071              6      0.80%     95.36% # Ticks for misses to the cache
system.cache.missLatency::131072-163839            22      2.92%     98.28% # Ticks for misses to the cache
system.cache.missLatency::163840-196607             4      0.53%     98.81% # Ticks for misses to the cache
system.cache.missLatency::196608-229375             1      0.13%     98.94% # Ticks for misses to the cache
system.cache.missLatency::229376-262143             3      0.40%     99.34% # Ticks for misses to the cache
system.cache.missLatency::262144-294911             1      0.13%     99.47% # Ticks for misses to the cache
system.cache.missLatency::294912-327679             1      0.13%     99.60% # Ticks for misses to the cache
system.cache.missLatency::327680-360447             2      0.27%     99.87% # Ticks for misses to the cache
system.cache.missLatency::360448-393215             1      0.13%    100.00% # Ticks for misses to the cache
system.cache.missLatency::393216-425983             0      0.00%    100.00% # Ticks for misses to the cache
system.cache.missLatency::425984-458751             0      0.00%    100.00% # Ticks for misses to the cache
system.cache.missLatency::458752-491519             0      0.00%    100.00% # Ticks for misses to the cache
system.cache.missLatency::491520-524287             0      0.00%    100.00% # Ticks for misses to the cache
system.cache.missLatency::total                   754                       # Ticks for misses to the cache
system.cache.hitRatio                        0.954955                       # The ratio of hits to the total accesses to the cache
system.cpu.dtb.fetch_hits                           0                       # ITB hits
system.cpu.dtb.fetch_misses                         0                       # ITB misses
system.cpu.dtb.fetch_acv                            0                       # ITB acv
system.cpu.dtb.fetch_accesses                       0                       # ITB accesses
system.cpu.dtb.read_hits                         2626                       # DTB read hits
system.cpu.dtb.read_misses                         10                       # DTB read misses
system.cpu.dtb.read_acv                             0                       # DTB read access violations
system.cpu.dtb.read_accesses                     2636                       # DTB read accesses
system.cpu.dtb.write_hits                        2114                       # DTB write hits
system.cpu.dtb.write_misses                         2                       # DTB write misses
system.cpu.dtb.write_acv                            0                       # DTB write access violations
system.cpu.dtb.write_accesses                    2116                       # DTB write accesses
system.cpu.dtb.data_hits                         4740                       # DTB hits
system.cpu.dtb.data_misses                         12                       # DTB misses
system.cpu.dtb.data_acv                             0                       # DTB access violations
system.cpu.dtb.data_accesses                     4752                       # DTB accesses
system.cpu.itb.fetch_hits                       12000                       # ITB hits
system.cpu.itb.fetch_misses                        19                       # ITB misses
system.cpu.itb.fetch_acv                            0                       # ITB acv
system.cpu.itb.fetch_accesses                   12019                       # ITB accesses
system.cpu.itb.read_hits                            0                       # DTB read hits
system.cpu.itb.read_misses                          0                       # DTB read misses
system.cpu.itb.read_acv                             0                       # DTB read access violations
system.cpu.itb.read_accesses                        0                       # DTB read accesses
system.cpu.itb.write_hits                           0                       # DTB write hits
system.cpu.itb.write_misses                         0                       # DTB write misses
system.cpu.itb.write_acv                            0                       # DTB write access violations
system.cpu.itb.write_accesses                       0                       # DTB write accesses
system.cpu.itb.data_hits                            0                       # DTB hits
system.cpu.itb.data_misses                          0                       # DTB misses
system.cpu.itb.data_acv                             0                       # DTB access violations
system.cpu.itb.data_accesses                        0                       # DTB accesses
system.cpu.workload.numSyscalls                    10                       # Number of system calls
system.cpu.pwrStateResidencyTicks::ON        63783000                       # Cumulative time (in ticks) in various power states
system.cpu.numCycles                            63783                       # number of cpu cycles simulated
system.cpu.numWorkItemsStarted                      0                       # number of work items this cpu started
system.cpu.numWorkItemsCompleted                    0                       # number of work items this cpu completed
system.cpu.committedInsts                       11987                       # Number of instructions committed
system.cpu.committedOps                         11987                       # Number of ops (including micro ops) committed
system.cpu.num_int_alu_accesses                 11698                       # Number of integer alu accesses
system.cpu.num_fp_alu_accesses                     16                       # Number of float alu accesses
system.cpu.num_vec_alu_accesses                     0                       # Number of vector alu accesses
system.cpu.num_func_calls                         669                       # number of times a function call or return occured
system.cpu.num_conditional_control_insts          958                       # number of instructions that are conditional controls
system.cpu.num_int_insts                        11698                       # number of integer instructions
system.cpu.num_fp_insts                            16                       # number of float instructions
system.cpu.num_vec_insts                            0                       # number of vector instructions
system.cpu.num_int_register_reads               16122                       # number of times the integer registers were read
system.cpu.num_int_register_writes               8268                       # number of times the integer registers were written
system.cpu.num_fp_register_reads                   14                       # number of times the floating registers were read
system.cpu.num_fp_register_writes                   2                       # number of times the floating registers were written
system.cpu.num_vec_register_reads                   0                       # number of times the vector registers were read
system.cpu.num_vec_register_writes                  0                       # number of times the vector registers were written
system.cpu.num_mem_refs                          4752                       # number of memory refs
system.cpu.num_load_insts                        2636                       # Number of load instructions
system.cpu.num_store_insts                       2116                       # Number of store instructions
system.cpu.num_idle_cycles                          0                       # Number of idle cycles
system.cpu.num_busy_cycles                      63783                       # Number of busy cycles
system.cpu.not_idle_fraction                        1                       # Percentage of non-idle cycles
system.cpu.idle_fraction                            0                       # Percentage of idle cycles
system.cpu.Branches                              1911                       # Number of branches fetched
system.cpu.op_class::No_OpClass                    22      0.18%      0.18% # Class of executed instruction
system.cpu.op_class::IntAlu                      7216     60.14%     60.32% # Class of executed instruction
system.cpu.op_class::IntMult                        7      0.06%     60.38% # Class of executed instruction
system.cpu.op_class::IntDiv                         0      0.00%     60.38% # Class of executed instruction
system.cpu.op_class::FloatAdd                       2      0.02%     60.40% # Class of executed instruction
system.cpu.op_class::FloatCmp                       0      0.00%     60.40% # Class of executed instruction
system.cpu.op_class::FloatCvt                       0      0.00%     60.40% # Class of executed instruction
system.cpu.op_class::FloatMult                      0      0.00%     60.40% # Class of executed instruction
system.cpu.op_class::FloatMultAcc                   0      0.00%     60.40% # Class of executed instruction
system.cpu.op_class::FloatDiv                       0      0.00%     60.40% # Class of executed instruction
system.cpu.op_class::FloatMisc                      0      0.00%     60.40% # Class of executed instruction
system.cpu.op_class::FloatSqrt                      0      0.00%     60.40% # Class of executed instruction
system.cpu.op_class::SimdAdd                        0      0.00%     60.40% # Class of executed instruction
system.cpu.op_class::SimdAddAcc                     0      0.00%     60.40% # Class of executed instruction
system.cpu.op_class::SimdAlu                        0      0.00%     60.40% # Class of executed instruction
system.cpu.op_class::SimdCmp                        0      0.00%     60.40% # Class of executed instruction
system.cpu.op_class::SimdCvt                        0      0.00%     60.40% # Class of executed instruction
system.cpu.op_class::SimdMisc                       0      0.00%     60.40% # Class of executed instruction
system.cpu.op_class::SimdMult                       0      0.00%     60.40% # Class of executed instruction
system.cpu.op_class::SimdMultAcc                    0      0.00%     60.40% # Class of executed instruction
system.cpu.op_class::SimdShift                      0      0.00%     60.40% # Class of executed instruction
system.cpu.op_class::SimdShiftAcc                   0      0.00%     60.40% # Class of executed instruction
system.cpu.op_class::SimdSqrt                       0      0.00%     60.40% # Class of executed instruction
system.cpu.op_class::SimdFloatAdd                   0      0.00%     60.40% # Class of executed instruction
system.cpu.op_class::SimdFloatAlu                   0      0.00%     60.40% # Class of executed instruction
system.cpu.op_class::SimdFloatCmp                   0      0.00%     60.40% # Class of executed instruction
system.cpu.op_class::SimdFloatCvt                   0      0.00%     60.40% # Class of executed instruction
system.cpu.op_class::SimdFloatDiv                   0      0.00%     60.40% # Class of executed instruction
system.cpu.op_class::SimdFloatMisc                  0      0.00%     60.40% # Class of executed instruction
system.cpu.op_class::SimdFloatMult                  0      0.00%     60.40% # Class of executed instruction
system.cpu.op_class::SimdFloatMultAcc               0      0.00%     60.40% # Class of executed instruction
system.cpu.op_class::SimdFloatSqrt                  0      0.00%     60.40% # Class of executed instruction
system.cpu.op_class::MemRead                     2635     21.96%     82.36% # Class of executed instruction
system.cpu.op_class::MemWrite                    2103     17.53%     99.88% # Class of executed instruction
system.cpu.op_class::FloatMemRead                   1      0.01%     99.89% # Class of executed instruction
system.cpu.op_class::FloatMemWrite                 13      0.11%    100.00% # Class of executed instruction
system.cpu.op_class::IprAccess                      0      0.00%    100.00% # Class of executed instruction
system.cpu.op_class::InstPrefetch                   0      0.00%    100.00% # Class of executed instruction
system.cpu.op_class::total                      11999                       # Class of executed instruction
system.membus.snoop_filter.tot_requests             0                       # Total number of requests made to the snoop filter.
system.membus.snoop_filter.hit_single_requests            0                       # Number of requests hitting in the snoop filter with a single holder of the requested data.
system.membus.snoop_filter.hit_multi_requests            0                       # Number of requests hitting in the snoop filter with multiple (>1) holders of the requested data.
system.membus.snoop_filter.tot_snoops               0                       # Total number of snoops made to the snoop filter.
system.membus.snoop_filter.hit_single_snoops            0                       # Number of snoops hitting in the snoop filter with a single holder of the requested data.
system.membus.snoop_filter.hit_multi_snoops            0                       # Number of snoops hitting in the snoop filter with multiple (>1) holders of the requested data.
system.membus.pwrStateResidencyTicks::UNDEFINED     63783000                       # Cumulative time (in ticks) in various power states
system.membus.trans_dist::ReadReq                 754                       # Transaction distribution
system.membus.trans_dist::ReadResp                754                       # Transaction distribution
system.membus.trans_dist::WritebackDirty          626                       # Transaction distribution
system.membus.pkt_count_system.cache.mem_side::system.mem_ctrl.port         2134                       # Packet count per connected master and slave (bytes)
system.membus.pkt_count::total                   2134                       # Packet count per connected master and slave (bytes)
system.membus.pkt_size_system.cache.mem_side::system.mem_ctrl.port        88320                       # Cumulative packet size per connected master and slave (bytes)
system.membus.pkt_size::total                   88320                       # Cumulative packet size per connected master and slave (bytes)
system.membus.snoops                                0                       # Total snoops (count)
system.membus.snoopTraffic                          0                       # Total snoop traffic (bytes)
system.membus.snoop_fanout::samples               754                       # Request fanout histogram
system.membus.snoop_fanout::mean                    0                       # Request fanout histogram
system.membus.snoop_fanout::stdev                   0                       # Request fanout histogram
system.membus.snoop_fanout::underflows              0      0.00%      0.00% # Request fanout histogram
system.membus.snoop_fanout::0                     754    100.00%    100.00% # Request fanout histogram
system.membus.snoop_fanout::overflows               0      0.00%    100.00% # Request fanout histogram
system.membus.snoop_fanout::min_value               0                       # Request fanout histogram
system.membus.snoop_fanout::max_value               0                       # Request fanout histogram
system.membus.snoop_fanout::total                 754                       # Request fanout histogram
system.membus.reqLayer0.occupancy             3884000                       # Layer occupancy (ticks)
system.membus.reqLayer0.utilization               6.1                       # Layer utilization (%)
system.membus.respLayer0.occupancy            3993250                       # Layer occupancy (ticks)
system.membus.respLayer0.utilization              6.3                       # Layer utilization (%)

---------- End Simulation Statistics   ----------
