
---------- Begin Simulation Statistics ----------
sim_seconds                                  0.000053                       # Number of seconds simulated
sim_ticks                                    53446000                       # Number of ticks simulated
final_tick                                   53446000                       # Number of ticks from beginning of simulation (restored from checkpoints and never reset)
sim_freq                                 1000000000000                       # Frequency of simulated ticks
host_inst_rate                                 585091                       # Simulator instruction rate (inst/s)
host_op_rate                                   584155                       # Simulator op (including micro ops) rate (op/s)
host_tick_rate                             3555954757                       # Simulator tick rate (ticks/s)
host_mem_usage                                8484348                       # Number of bytes of host memory used
host_seconds                                     0.02                       # Real time elapsed on the host
sim_insts                                        8767                       # Number of instructions simulated
sim_ops                                          8767                       # Number of ops (including micro ops) simulated
system.clk_domain.voltage_domain.voltage            1                       # Voltage in Volts
system.clk_domain.clock                          1000                       # Clock period in ticks
system.mem_ctrl.pwrStateResidencyTicks::UNDEFINED     53446000                       # Cumulative time (in ticks) in various power states
system.mem_ctrl.bytes_read::cpu.inst            23872                       # Number of bytes read from this memory
system.mem_ctrl.bytes_read::cpu.data            19200                       # Number of bytes read from this memory
system.mem_ctrl.bytes_read::total               43072                       # Number of bytes read from this memory
system.mem_ctrl.bytes_inst_read::cpu.inst        23872                       # Number of instructions bytes read from this memory
system.mem_ctrl.bytes_inst_read::total          23872                       # Number of instructions bytes read from this memory
system.mem_ctrl.bytes_written::writebacks        34880                       # Number of bytes written to this memory
system.mem_ctrl.bytes_written::total            34880                       # Number of bytes written to this memory
system.mem_ctrl.num_reads::cpu.inst               373                       # Number of read requests responded to by this memory
system.mem_ctrl.num_reads::cpu.data               300                       # Number of read requests responded to by this memory
system.mem_ctrl.num_reads::total                  673                       # Number of read requests responded to by this memory
system.mem_ctrl.num_writes::writebacks            545                       # Number of write requests responded to by this memory
system.mem_ctrl.num_writes::total                 545                       # Number of write requests responded to by this memory
system.mem_ctrl.bw_read::cpu.inst           446656438                       # Total read bandwidth from this memory (bytes/s)
system.mem_ctrl.bw_read::cpu.data           359241103                       # Total read bandwidth from this memory (bytes/s)
system.mem_ctrl.bw_read::total              805897541                       # Total read bandwidth from this memory (bytes/s)
system.mem_ctrl.bw_inst_read::cpu.inst      446656438                       # Instruction read bandwidth from this memory (bytes/s)
system.mem_ctrl.bw_inst_read::total         446656438                       # Instruction read bandwidth from this memory (bytes/s)
system.mem_ctrl.bw_write::writebacks        652621337                       # Write bandwidth from this memory (bytes/s)
system.mem_ctrl.bw_write::total             652621337                       # Write bandwidth from this memory (bytes/s)
system.mem_ctrl.bw_total::writebacks        652621337                       # Total bandwidth to/from this memory (bytes/s)
system.mem_ctrl.bw_total::cpu.inst          446656438                       # Total bandwidth to/from this memory (bytes/s)
system.mem_ctrl.bw_total::cpu.data          359241103                       # Total bandwidth to/from this memory (bytes/s)
system.mem_ctrl.bw_total::total            1458518879                       # Total bandwidth to/from this memory (bytes/s)
system.mem_ctrl.readReqs                          673                       # Number of read requests accepted
system.mem_ctrl.writeReqs                         545                       # Number of write requests accepted
system.mem_ctrl.readBursts                        673                       # Number of DRAM read bursts, including those serviced by the write queue
system.mem_ctrl.writeBursts                       545                       # Number of DRAM write bursts, including those merged in the write queue
system.mem_ctrl.bytesReadDRAM                   39040                       # Total number of bytes read from DRAM
system.mem_ctrl.bytesReadWrQ                     4032                       # Total number of bytes read from write queue
system.mem_ctrl.bytesWritten                    33408                       # Total number of bytes written to DRAM
system.mem_ctrl.bytesReadSys                    43072                       # Total read bytes from the system interface side
system.mem_ctrl.bytesWrittenSys                 34880                       # Total written bytes from the system interface side
system.mem_ctrl.servicedByWrQ                      63                       # Number of DRAM read bursts serviced by the write queue
system.mem_ctrl.mergedWrBursts                      4                       # Number of DRAM write bursts merged with an existing one
system.mem_ctrl.neitherReadNorWriteReqs             0                       # Number of requests that are neither read nor write
system.mem_ctrl.perBankRdBursts::0                 82                       # Per bank write bursts
system.mem_ctrl.perBankRdBursts::1                 19                       # Per bank write bursts
system.mem_ctrl.perBankRdBursts::2                121                       # Per bank write bursts
system.mem_ctrl.perBankRdBursts::3                100                       # Per bank write bursts
system.mem_ctrl.perBankRdBursts::4                 70                       # Per bank write bursts
system.mem_ctrl.perBankRdBursts::5                 27                       # Per bank write bursts
system.mem_ctrl.perBankRdBursts::6                 12                       # Per bank write bursts
system.mem_ctrl.perBankRdBursts::7                 13                       # Per bank write bursts
system.mem_ctrl.perBankRdBursts::8                  3                       # Per bank write bursts
system.mem_ctrl.perBankRdBursts::9                 49                       # Per bank write bursts
system.mem_ctrl.perBankRdBursts::10                 6                       # Per bank write bursts
system.mem_ctrl.perBankRdBursts::11                 8                       # Per bank write bursts
system.mem_ctrl.perBankRdBursts::12                 5                       # Per bank write bursts
system.mem_ctrl.perBankRdBursts::13                25                       # Per bank write bursts
system.mem_ctrl.perBankRdBursts::14                50                       # Per bank write bursts
system.mem_ctrl.perBankRdBursts::15                20                       # Per bank write bursts
system.mem_ctrl.perBankWrBursts::0                 74                       # Per bank write bursts
system.mem_ctrl.perBankWrBursts::1                 20                       # Per bank write bursts
system.mem_ctrl.perBankWrBursts::2                119                       # Per bank write bursts
system.mem_ctrl.perBankWrBursts::3                 90                       # Per bank write bursts
system.mem_ctrl.perBankWrBursts::4                 57                       # Per bank write bursts
system.mem_ctrl.perBankWrBursts::5                 24                       # Per bank write bursts
system.mem_ctrl.perBankWrBursts::6                 10                       # Per bank write bursts
system.mem_ctrl.perBankWrBursts::7                 10                       # Per bank write bursts
system.mem_ctrl.perBankWrBursts::8                  1                       # Per bank write bursts
system.mem_ctrl.perBankWrBursts::9                 52                       # Per bank write bursts
system.mem_ctrl.perBankWrBursts::10                 6                       # Per bank write bursts
system.mem_ctrl.perBankWrBursts::11                 6                       # Per bank write bursts
system.mem_ctrl.perBankWrBursts::12                 2                       # Per bank write bursts
system.mem_ctrl.perBankWrBursts::13                15                       # Per bank write bursts
system.mem_ctrl.perBankWrBursts::14                24                       # Per bank write bursts
system.mem_ctrl.perBankWrBursts::15                12                       # Per bank write bursts
system.mem_ctrl.numRdRetry                          0                       # Number of times read queue was full causing retry
system.mem_ctrl.numWrRetry                          0                       # Number of times write queue was full causing retry
system.mem_ctrl.totGap                       53433000                       # Total gap between requests
system.mem_ctrl.readPktSize::0                      0                       # Read request sizes (log2)
system.mem_ctrl.readPktSize::1                      0                       # Read request sizes (log2)
system.mem_ctrl.readPktSize::2                      0                       # Read request sizes (log2)
system.mem_ctrl.readPktSize::3                      0                       # Read request sizes (log2)
system.mem_ctrl.readPktSize::4                      0                       # Read request sizes (log2)
system.mem_ctrl.readPktSize::5                      0                       # Read request sizes (log2)
system.mem_ctrl.readPktSize::6                    673                       # Read request sizes (log2)
system.mem_ctrl.writePktSize::0                     0                       # Write request sizes (log2)
system.mem_ctrl.writePktSize::1                     0                       # Write request sizes (log2)
system.mem_ctrl.writePktSize::2                     0                       # Write request sizes (log2)
system.mem_ctrl.writePktSize::3                     0                       # Write request sizes (log2)
system.mem_ctrl.writePktSize::4                     0                       # Write request sizes (log2)
system.mem_ctrl.writePktSize::5                     0                       # Write request sizes (log2)
system.mem_ctrl.writePktSize::6                   545                       # Write request sizes (log2)
system.mem_ctrl.rdQLenPdf::0                      610                       # What read queue length does an incoming req see
system.mem_ctrl.rdQLenPdf::1                        0                       # What read queue length does an incoming req see
system.mem_ctrl.rdQLenPdf::2                        0                       # What read queue length does an incoming req see
system.mem_ctrl.rdQLenPdf::3                        0                       # What read queue length does an incoming req see
system.mem_ctrl.rdQLenPdf::4                        0                       # What read queue length does an incoming req see
system.mem_ctrl.rdQLenPdf::5                        0                       # What read queue length does an incoming req see
system.mem_ctrl.rdQLenPdf::6                        0                       # What read queue length does an incoming req see
system.mem_ctrl.rdQLenPdf::7                        0                       # What read queue length does an incoming req see
system.mem_ctrl.rdQLenPdf::8                        0                       # What read queue length does an incoming req see
system.mem_ctrl.rdQLenPdf::9                        0                       # What read queue length does an incoming req see
system.mem_ctrl.rdQLenPdf::10                       0                       # What read queue length does an incoming req see
system.mem_ctrl.rdQLenPdf::11                       0                       # What read queue length does an incoming req see
system.mem_ctrl.rdQLenPdf::12                       0                       # What read queue length does an incoming req see
system.mem_ctrl.rdQLenPdf::13                       0                       # What read queue length does an incoming req see
system.mem_ctrl.rdQLenPdf::14                       0                       # What read queue length does an incoming req see
system.mem_ctrl.rdQLenPdf::15                       0                       # What read queue length does an incoming req see
system.mem_ctrl.rdQLenPdf::16                       0                       # What read queue length does an incoming req see
system.mem_ctrl.rdQLenPdf::17                       0                       # What read queue length does an incoming req see
system.mem_ctrl.rdQLenPdf::18                       0                       # What read queue length does an incoming req see
system.mem_ctrl.rdQLenPdf::19                       0                       # What read queue length does an incoming req see
system.mem_ctrl.rdQLenPdf::20                       0                       # What read queue length does an incoming req see
system.mem_ctrl.rdQLenPdf::21                       0                       # What read queue length does an incoming req see
system.mem_ctrl.rdQLenPdf::22                       0                       # What read queue length does an incoming req see
system.mem_ctrl.rdQLenPdf::23                       0                       # What read queue length does an incoming req see
system.mem_ctrl.rdQLenPdf::24                       0                       # What read queue length does an incoming req see
system.mem_ctrl.rdQLenPdf::25                       0                       # What read queue length does an incoming req see
system.mem_ctrl.rdQLenPdf::26                       0                       # What read queue length does an incoming req see
system.mem_ctrl.rdQLenPdf::27                       0                       # What read queue length does an incoming req see
system.mem_ctrl.rdQLenPdf::28                       0                       # What read queue length does an incoming req see
system.mem_ctrl.rdQLenPdf::29                       0                       # What read queue length does an incoming req see
system.mem_ctrl.rdQLenPdf::30                       0                       # What read queue length does an incoming req see
system.mem_ctrl.rdQLenPdf::31                       0                       # What read queue length does an incoming req see
system.mem_ctrl.wrQLenPdf::0                        1                       # What write queue length does an incoming req see
system.mem_ctrl.wrQLenPdf::1                        1                       # What write queue length does an incoming req see
system.mem_ctrl.wrQLenPdf::2                        1                       # What write queue length does an incoming req see
system.mem_ctrl.wrQLenPdf::3                        1                       # What write queue length does an incoming req see
system.mem_ctrl.wrQLenPdf::4                        1                       # What write queue length does an incoming req see
system.mem_ctrl.wrQLenPdf::5                        1                       # What write queue length does an incoming req see
system.mem_ctrl.wrQLenPdf::6                        1                       # What write queue length does an incoming req see
system.mem_ctrl.wrQLenPdf::7                        1                       # What write queue length does an incoming req see
system.mem_ctrl.wrQLenPdf::8                        1                       # What write queue length does an incoming req see
system.mem_ctrl.wrQLenPdf::9                        1                       # What write queue length does an incoming req see
system.mem_ctrl.wrQLenPdf::10                       1                       # What write queue length does an incoming req see
system.mem_ctrl.wrQLenPdf::11                       1                       # What write queue length does an incoming req see
system.mem_ctrl.wrQLenPdf::12                       1                       # What write queue length does an incoming req see
system.mem_ctrl.wrQLenPdf::13                       1                       # What write queue length does an incoming req see
system.mem_ctrl.wrQLenPdf::14                       1                       # What write queue length does an incoming req see
system.mem_ctrl.wrQLenPdf::15                       4                       # What write queue length does an incoming req see
system.mem_ctrl.wrQLenPdf::16                       4                       # What write queue length does an incoming req see
system.mem_ctrl.wrQLenPdf::17                      32                       # What write queue length does an incoming req see
system.mem_ctrl.wrQLenPdf::18                      33                       # What write queue length does an incoming req see
system.mem_ctrl.wrQLenPdf::19                      34                       # What write queue length does an incoming req see
system.mem_ctrl.wrQLenPdf::20                      32                       # What write queue length does an incoming req see
system.mem_ctrl.wrQLenPdf::21                      32                       # What write queue length does an incoming req see
system.mem_ctrl.wrQLenPdf::22                      32                       # What write queue length does an incoming req see
system.mem_ctrl.wrQLenPdf::23                      34                       # What write queue length does an incoming req see
system.mem_ctrl.wrQLenPdf::24                      33                       # What write queue length does an incoming req see
system.mem_ctrl.wrQLenPdf::25                      32                       # What write queue length does an incoming req see
system.mem_ctrl.wrQLenPdf::26                      32                       # What write queue length does an incoming req see
system.mem_ctrl.wrQLenPdf::27                      32                       # What write queue length does an incoming req see
system.mem_ctrl.wrQLenPdf::28                      32                       # What write queue length does an incoming req see
system.mem_ctrl.wrQLenPdf::29                      32                       # What write queue length does an incoming req see
system.mem_ctrl.wrQLenPdf::30                      32                       # What write queue length does an incoming req see
system.mem_ctrl.wrQLenPdf::31                      32                       # What write queue length does an incoming req see
system.mem_ctrl.wrQLenPdf::32                      32                       # What write queue length does an incoming req see
system.mem_ctrl.wrQLenPdf::33                       0                       # What write queue length does an incoming req see
system.mem_ctrl.wrQLenPdf::34                       0                       # What write queue length does an incoming req see
system.mem_ctrl.wrQLenPdf::35                       0                       # What write queue length does an incoming req see
system.mem_ctrl.wrQLenPdf::36                       0                       # What write queue length does an incoming req see
system.mem_ctrl.wrQLenPdf::37                       0                       # What write queue length does an incoming req see
system.mem_ctrl.wrQLenPdf::38                       0                       # What write queue length does an incoming req see
system.mem_ctrl.wrQLenPdf::39                       0                       # What write queue length does an incoming req see
system.mem_ctrl.wrQLenPdf::40                       0                       # What write queue length does an incoming req see
system.mem_ctrl.wrQLenPdf::41                       0                       # What write queue length does an incoming req see
system.mem_ctrl.wrQLenPdf::42                       0                       # What write queue length does an incoming req see
system.mem_ctrl.wrQLenPdf::43                       0                       # What write queue length does an incoming req see
system.mem_ctrl.wrQLenPdf::44                       0                       # What write queue length does an incoming req see
system.mem_ctrl.wrQLenPdf::45                       0                       # What write queue length does an incoming req see
system.mem_ctrl.wrQLenPdf::46                       0                       # What write queue length does an incoming req see
system.mem_ctrl.wrQLenPdf::47                       0                       # What write queue length does an incoming req see
system.mem_ctrl.wrQLenPdf::48                       0                       # What write queue length does an incoming req see
system.mem_ctrl.wrQLenPdf::49                       0                       # What write queue length does an incoming req see
system.mem_ctrl.wrQLenPdf::50                       0                       # What write queue length does an incoming req see
system.mem_ctrl.wrQLenPdf::51                       0                       # What write queue length does an incoming req see
system.mem_ctrl.wrQLenPdf::52                       0                       # What write queue length does an incoming req see
system.mem_ctrl.wrQLenPdf::53                       0                       # What write queue length does an incoming req see
system.mem_ctrl.wrQLenPdf::54                       0                       # What write queue length does an incoming req see
system.mem_ctrl.wrQLenPdf::55                       0                       # What write queue length does an incoming req see
system.mem_ctrl.wrQLenPdf::56                       0                       # What write queue length does an incoming req see
system.mem_ctrl.wrQLenPdf::57                       0                       # What write queue length does an incoming req see
system.mem_ctrl.wrQLenPdf::58                       0                       # What write queue length does an incoming req see
system.mem_ctrl.wrQLenPdf::59                       0                       # What write queue length does an incoming req see
system.mem_ctrl.wrQLenPdf::60                       0                       # What write queue length does an incoming req see
system.mem_ctrl.wrQLenPdf::61                       0                       # What write queue length does an incoming req see
system.mem_ctrl.wrQLenPdf::62                       0                       # What write queue length does an incoming req see
system.mem_ctrl.wrQLenPdf::63                       0                       # What write queue length does an incoming req see
system.mem_ctrl.bytesPerActivate::samples          204                       # Bytes accessed per row activation
system.mem_ctrl.bytesPerActivate::mean     336.627451                       # Bytes accessed per row activation
system.mem_ctrl.bytesPerActivate::gmean    214.045177                       # Bytes accessed per row activation
system.mem_ctrl.bytesPerActivate::stdev    314.281287                       # Bytes accessed per row activation
system.mem_ctrl.bytesPerActivate::0-127            56     27.45%     27.45% # Bytes accessed per row activation
system.mem_ctrl.bytesPerActivate::128-255           49     24.02%     51.47% # Bytes accessed per row activation
system.mem_ctrl.bytesPerActivate::256-383           23     11.27%     62.75% # Bytes accessed per row activation
system.mem_ctrl.bytesPerActivate::384-511           27     13.24%     75.98% # Bytes accessed per row activation
system.mem_ctrl.bytesPerActivate::512-639           10      4.90%     80.88% # Bytes accessed per row activation
system.mem_ctrl.bytesPerActivate::640-767            8      3.92%     84.80% # Bytes accessed per row activation
system.mem_ctrl.bytesPerActivate::768-895            6      2.94%     87.75% # Bytes accessed per row activation
system.mem_ctrl.bytesPerActivate::896-1023            5      2.45%     90.20% # Bytes accessed per row activation
system.mem_ctrl.bytesPerActivate::1024-1151           20      9.80%    100.00% # Bytes accessed per row activation
system.mem_ctrl.bytesPerActivate::total           204                       # Bytes accessed per row activation
system.mem_ctrl.rdPerTurnAround::samples           32                       # Reads before turning the bus around for writes
system.mem_ctrl.rdPerTurnAround::mean              19                       # Reads before turning the bus around for writes
system.mem_ctrl.rdPerTurnAround::gmean      15.401502                       # Reads before turning the bus around for writes
system.mem_ctrl.rdPerTurnAround::stdev      25.975174                       # Reads before turning the bus around for writes
system.mem_ctrl.rdPerTurnAround::8-15              23     71.88%     71.88% # Reads before turning the bus around for writes
system.mem_ctrl.rdPerTurnAround::16-23              8     25.00%     96.88% # Reads before turning the bus around for writes
system.mem_ctrl.rdPerTurnAround::160-167            1      3.12%    100.00% # Reads before turning the bus around for writes
system.mem_ctrl.rdPerTurnAround::total             32                       # Reads before turning the bus around for writes
system.mem_ctrl.wrPerTurnAround::samples           32                       # Writes before turning the bus around for reads
system.mem_ctrl.wrPerTurnAround::mean       16.312500                       # Writes before turning the bus around for reads
system.mem_ctrl.wrPerTurnAround::gmean      16.294036                       # Writes before turning the bus around for reads
system.mem_ctrl.wrPerTurnAround::stdev       0.820602                       # Writes before turning the bus around for reads
system.mem_ctrl.wrPerTurnAround::16                27     84.38%     84.38% # Writes before turning the bus around for reads
system.mem_ctrl.wrPerTurnAround::17                 2      6.25%     90.62% # Writes before turning the bus around for reads
system.mem_ctrl.wrPerTurnAround::18                 1      3.12%     93.75% # Writes before turning the bus around for reads
system.mem_ctrl.wrPerTurnAround::19                 2      6.25%    100.00% # Writes before turning the bus around for reads
system.mem_ctrl.wrPerTurnAround::total             32                       # Writes before turning the bus around for reads
system.mem_ctrl.totQLat                      10026000                       # Total ticks spent queuing
system.mem_ctrl.totMemAccLat                 21463500                       # Total ticks spent from burst creation until serviced by the DRAM
system.mem_ctrl.totBusLat                     3050000                       # Total ticks spent in databus transfers
system.mem_ctrl.avgQLat                      16436.07                       # Average queueing delay per DRAM burst
system.mem_ctrl.avgBusLat                     5000.00                       # Average bus latency per DRAM burst
system.mem_ctrl.avgMemAccLat                 35186.07                       # Average memory access latency per DRAM burst
system.mem_ctrl.avgRdBW                        730.46                       # Average DRAM read bandwidth in MiByte/s
system.mem_ctrl.avgWrBW                        625.08                       # Average achieved write bandwidth in MiByte/s
system.mem_ctrl.avgRdBWSys                     805.90                       # Average system read bandwidth in MiByte/s
system.mem_ctrl.avgWrBWSys                     652.62                       # Average system write bandwidth in MiByte/s
system.mem_ctrl.peakBW                       12800.00                       # Theoretical peak bandwidth in MiByte/s
system.mem_ctrl.busUtil                         10.59                       # Data bus utilization in percentage
system.mem_ctrl.busUtilRead                      5.71                       # Data bus utilization in percentage for reads
system.mem_ctrl.busUtilWrite                     4.88                       # Data bus utilization in percentage for writes
system.mem_ctrl.avgRdQLen                        1.00                       # Average read queue length when enqueuing
system.mem_ctrl.avgWrQLen                       20.83                       # Average write queue length when enqueuing
system.mem_ctrl.readRowHits                       448                       # Number of row buffer hits during reads
system.mem_ctrl.writeRowHits                      468                       # Number of row buffer hits during writes
system.mem_ctrl.readRowHitRate                  73.44                       # Row buffer hit rate for reads
system.mem_ctrl.writeRowHitRate                 86.51                       # Row buffer hit rate for writes
system.mem_ctrl.avgGap                       43869.46                       # Average gap between requests
system.mem_ctrl.pageHitRate                     79.58                       # Row buffer hit rate, read and write combined
system.mem_ctrl_0.actEnergy                   1220940                       # Energy for activate commands per rank (pJ)
system.mem_ctrl_0.preEnergy                    629970                       # Energy for precharge commands per rank (pJ)
system.mem_ctrl_0.readEnergy                  3170160                       # Energy for read commands per rank (pJ)
system.mem_ctrl_0.writeEnergy                 2108880                       # Energy for write commands per rank (pJ)
system.mem_ctrl_0.refreshEnergy          3687840.000000                       # Energy for refresh commands per rank (pJ)
system.mem_ctrl_0.actBackEnergy              10190460                       # Energy for active background per rank (pJ)
system.mem_ctrl_0.preBackEnergy                 74880                       # Energy for precharge background per rank (pJ)
system.mem_ctrl_0.actPowerDownEnergy         13990650                       # Energy for active power-down per rank (pJ)
system.mem_ctrl_0.prePowerDownEnergy            85440                       # Energy for precharge power-down per rank (pJ)
system.mem_ctrl_0.selfRefreshEnergy                 0                       # Energy for self refresh per rank (pJ)
system.mem_ctrl_0.totalEnergy                35159220                       # Total energy per rank (pJ)
system.mem_ctrl_0.averagePower             657.842599                       # Core power per rank (mW)
system.mem_ctrl_0.totalIdleTime              30858000                       # Total Idle time Per DRAM Rank
system.mem_ctrl_0.memoryStateTime::IDLE         28750                       # Time in different power states
system.mem_ctrl_0.memoryStateTime::REF        1560000                       # Time in different power states
system.mem_ctrl_0.memoryStateTime::SREF             0                       # Time in different power states
system.mem_ctrl_0.memoryStateTime::PRE_PDN       222250                       # Time in different power states
system.mem_ctrl_0.memoryStateTime::ACT       20956750                       # Time in different power states
system.mem_ctrl_0.memoryStateTime::ACT_PDN     30678250                       # Time in different power states
system.mem_ctrl_1.actEnergy                    321300                       # Energy for activate commands per rank (pJ)
system.mem_ctrl_1.preEnergy                    144210                       # Energy for precharge commands per rank (pJ)
system.mem_ctrl_1.readEnergy                  1185240                       # Energy for read commands per rank (pJ)
system.mem_ctrl_1.writeEnergy                  615960                       # Energy for write commands per rank (pJ)
system.mem_ctrl_1.refreshEnergy          3687840.000000                       # Energy for refresh commands per rank (pJ)
system.mem_ctrl_1.actBackEnergy               6572100                       # Energy for active background per rank (pJ)
system.mem_ctrl_1.preBackEnergy                233760                       # Energy for precharge background per rank (pJ)
system.mem_ctrl_1.actPowerDownEnergy         16064880                       # Energy for active power-down per rank (pJ)
system.mem_ctrl_1.prePowerDownEnergy          1226880                       # Energy for precharge power-down per rank (pJ)
system.mem_ctrl_1.selfRefreshEnergy                 0                       # Energy for self refresh per rank (pJ)
system.mem_ctrl_1.totalEnergy                30052170                       # Total energy per rank (pJ)
system.mem_ctrl_1.averagePower             562.287719                       # Core power per rank (mW)
system.mem_ctrl_1.totalIdleTime              38146000                       # Total Idle time Per DRAM Rank
system.mem_ctrl_1.memoryStateTime::IDLE        444000                       # Time in different power states
system.mem_ctrl_1.memoryStateTime::REF        1560000                       # Time in different power states
system.mem_ctrl_1.memoryStateTime::SREF             0                       # Time in different power states
system.mem_ctrl_1.memoryStateTime::PRE_PDN      3193000                       # Time in different power states
system.mem_ctrl_1.memoryStateTime::ACT       13008250                       # Time in different power states
system.mem_ctrl_1.memoryStateTime::ACT_PDN     35240750                       # Time in different power states
system.pwrStateResidencyTicks::UNDEFINED     53446000                       # Cumulative time (in ticks) in various power states
system.cache.pwrStateResidencyTicks::UNDEFINED     53446000                       # Cumulative time (in ticks) in various power states
system.cache.hits                               11025                       # Number of hits
system.cache.misses                               673                       # Number of misses
system.cache.missLatency::samples                 673                       # Ticks for misses to the cache
system.cache.missLatency::mean           62032.689450                       # Ticks for misses to the cache
system.cache.missLatency::gmean          56903.786089                       # Ticks for misses to the cache
system.cache.missLatency::stdev          31178.663359                       # Ticks for misses to the cache
system.cache.missLatency::0-32767                  63      9.36%      9.36% # Ticks for misses to the cache
system.cache.missLatency::32768-65535             443     65.82%     75.19% # Ticks for misses to the cache
system.cache.missLatency::65536-98303             133     19.76%     94.95% # Ticks for misses to the cache
system.cache.missLatency::98304-131071             10      1.49%     96.43% # Ticks for misses to the cache
system.cache.missLatency::131072-163839            19      2.82%     99.26% # Ticks for misses to the cache
system.cache.missLatency::163840-196607             0      0.00%     99.26% # Ticks for misses to the cache
system.cache.missLatency::196608-229375             0      0.00%     99.26% # Ticks for misses to the cache
system.cache.missLatency::229376-262143             0      0.00%     99.26% # Ticks for misses to the cache
system.cache.missLatency::262144-294911             1      0.15%     99.41% # Ticks for misses to the cache
system.cache.missLatency::294912-327679             3      0.45%     99.85% # Ticks for misses to the cache
system.cache.missLatency::327680-360447             1      0.15%    100.00% # Ticks for misses to the cache
system.cache.missLatency::360448-393215             0      0.00%    100.00% # Ticks for misses to the cache
system.cache.missLatency::393216-425983             0      0.00%    100.00% # Ticks for misses to the cache
system.cache.missLatency::425984-458751             0      0.00%    100.00% # Ticks for misses to the cache
system.cache.missLatency::458752-491519             0      0.00%    100.00% # Ticks for misses to the cache
system.cache.missLatency::491520-524287             0      0.00%    100.00% # Ticks for misses to the cache
system.cache.missLatency::total                   673                       # Ticks for misses to the cache
system.cache.hitRatio                        0.942469                       # The ratio of hits to the total accesses to the cache
system.cpu.dtb.fetch_hits                           0                       # ITB hits
system.cpu.dtb.fetch_misses                         0                       # ITB misses
system.cpu.dtb.fetch_acv                            0                       # ITB acv
system.cpu.dtb.fetch_accesses                       0                       # ITB accesses
system.cpu.dtb.read_hits                         1710                       # DTB read hits
system.cpu.dtb.read_misses                         10                       # DTB read misses
system.cpu.dtb.read_acv                             0                       # DTB read access violations
system.cpu.dtb.read_accesses                     1720                       # DTB read accesses
system.cpu.dtb.write_hits                        1209                       # DTB write hits
system.cpu.dtb.write_misses                         2                       # DTB write misses
system.cpu.dtb.write_acv                            0                       # DTB write access violations
system.cpu.dtb.write_accesses                    1211                       # DTB write accesses
system.cpu.dtb.data_hits                         2919                       # DTB hits
system.cpu.dtb.data_misses                         12                       # DTB misses
system.cpu.dtb.data_acv                             0                       # DTB access violations
system.cpu.dtb.data_accesses                     2931                       # DTB accesses
system.cpu.itb.fetch_hits                        8780                       # ITB hits
system.cpu.itb.fetch_misses                        19                       # ITB misses
system.cpu.itb.fetch_acv                            0                       # ITB acv
system.cpu.itb.fetch_accesses                    8799                       # ITB accesses
system.cpu.itb.read_hits                            0                       # DTB read hits
system.cpu.itb.read_misses                          0                       # DTB read misses
system.cpu.itb.read_acv                             0                       # DTB read access violations
system.cpu.itb.read_accesses                        0                       # DTB read accesses
system.cpu.itb.write_hits                           0                       # DTB write hits
system.cpu.itb.write_misses                         0                       # DTB write misses
system.cpu.itb.write_acv                            0                       # DTB write access violations
system.cpu.itb.write_accesses                       0                       # DTB write accesses
system.cpu.itb.data_hits                            0                       # DTB hits
system.cpu.itb.data_misses                          0                       # DTB misses
system.cpu.itb.data_acv                             0                       # DTB access violations
system.cpu.itb.data_accesses                        0                       # DTB accesses
system.cpu.workload.numSyscalls                    10                       # Number of system calls
system.cpu.pwrStateResidencyTicks::ON        53446000                       # Cumulative time (in ticks) in various power states
system.cpu.numCycles                            53446                       # number of cpu cycles simulated
system.cpu.numWorkItemsStarted                      0                       # number of work items this cpu started
system.cpu.numWorkItemsCompleted                    0                       # number of work items this cpu completed
system.cpu.committedInsts                        8767                       # Number of instructions committed
system.cpu.committedOps                          8767                       # Number of ops (including micro ops) committed
system.cpu.num_int_alu_accesses                  8667                       # Number of integer alu accesses
system.cpu.num_fp_alu_accesses                     16                       # Number of float alu accesses
system.cpu.num_vec_alu_accesses                     0                       # Number of vector alu accesses
system.cpu.num_func_calls                         251                       # number of times a function call or return occured
system.cpu.num_conditional_control_insts          903                       # number of instructions that are conditional controls
system.cpu.num_int_insts                         8667                       # number of integer instructions
system.cpu.num_fp_insts                            16                       # number of float instructions
system.cpu.num_vec_insts                            0                       # number of vector instructions
system.cpu.num_int_register_reads               11807                       # number of times the integer registers were read
system.cpu.num_int_register_writes               6404                       # number of times the integer registers were written
system.cpu.num_fp_register_reads                   14                       # number of times the floating registers were read
system.cpu.num_fp_register_writes                   2                       # number of times the floating registers were written
system.cpu.num_vec_register_reads                   0                       # number of times the vector registers were read
system.cpu.num_vec_register_writes                  0                       # number of times the vector registers were written
system.cpu.num_mem_refs                          2931                       # number of memory refs
system.cpu.num_load_insts                        1720                       # Number of load instructions
system.cpu.num_store_insts                       1211                       # Number of store instructions
system.cpu.num_idle_cycles                          0                       # Number of idle cycles
system.cpu.num_busy_cycles                      53446                       # Number of busy cycles
system.cpu.not_idle_fraction                        1                       # Percentage of non-idle cycles
system.cpu.idle_fraction                            0                       # Percentage of idle cycles
system.cpu.Branches                              1241                       # Number of branches fetched
system.cpu.op_class::No_OpClass                    32      0.36%      0.36% # Class of executed instruction
system.cpu.op_class::IntAlu                      5813     66.21%     66.58% # Class of executed instruction
system.cpu.op_class::IntMult                        1      0.01%     66.59% # Class of executed instruction
system.cpu.op_class::IntDiv                         0      0.00%     66.59% # Class of executed instruction
system.cpu.op_class::FloatAdd                       2      0.02%     66.61% # Class of executed instruction
system.cpu.op_class::FloatCmp                       0      0.00%     66.61% # Class of executed instruction
system.cpu.op_class::FloatCvt                       0      0.00%     66.61% # Class of executed instruction
system.cpu.op_class::FloatMult                      0      0.00%     66.61% # Class of executed instruction
system.cpu.op_class::FloatMultAcc                   0      0.00%     66.61% # Class of executed instruction
system.cpu.op_class::FloatDiv                       0      0.00%     66.61% # Class of executed instruction
system.cpu.op_class::FloatMisc                      0      0.00%     66.61% # Class of executed instruction
system.cpu.op_class::FloatSqrt                      0      0.00%     66.61% # Class of executed instruction
system.cpu.op_class::SimdAdd                        0      0.00%     66.61% # Class of executed instruction
system.cpu.op_class::SimdAddAcc                     0      0.00%     66.61% # Class of executed instruction
system.cpu.op_class::SimdAlu                        0      0.00%     66.61% # Class of executed instruction
system.cpu.op_class::SimdCmp                        0      0.00%     66.61% # Class of executed instruction
system.cpu.op_class::SimdCvt                        0      0.00%     66.61% # Class of executed instruction
system.cpu.op_class::SimdMisc                       0      0.00%     66.61% # Class of executed instruction
system.cpu.op_class::SimdMult                       0      0.00%     66.61% # Class of executed instruction
system.cpu.op_class::SimdMultAcc                    0      0.00%     66.61% # Class of executed instruction
system.cpu.op_class::SimdShift                      0      0.00%     66.61% # Class of executed instruction
system.cpu.op_class::SimdShiftAcc                   0      0.00%     66.61% # Class of executed instruction
system.cpu.op_class::SimdSqrt                       0      0.00%     66.61% # Class of executed instruction
system.cpu.op_class::SimdFloatAdd                   0      0.00%     66.61% # Class of executed instruction
system.cpu.op_class::SimdFloatAlu                   0      0.00%     66.61% # Class of executed instruction
system.cpu.op_class::SimdFloatCmp                   0      0.00%     66.61% # Class of executed instruction
system.cpu.op_class::SimdFloatCvt                   0      0.00%     66.61% # Class of executed instruction
system.cpu.op_class::SimdFloatDiv                   0      0.00%     66.61% # Class of executed instruction
system.cpu.op_class::SimdFloatMisc                  0      0.00%     66.61% # Class of executed instruction
system.cpu.op_class::SimdFloatMult                  0      0.00%     66.61% # Class of executed instruction
system.cpu.op_class::SimdFloatMultAcc               0      0.00%     66.61% # Class of executed instruction
system.cpu.op_class::SimdFloatSqrt                  0      0.00%     66.61% # Class of executed instruction
system.cpu.op_class::MemRead                     1719     19.58%     86.19% # Class of executed instruction
system.cpu.op_class::MemWrite                    1198     13.65%     99.84% # Class of executed instruction
system.cpu.op_class::FloatMemRead                   1      0.01%     99.85% # Class of executed instruction
system.cpu.op_class::FloatMemWrite                 13      0.15%    100.00% # Class of executed instruction
system.cpu.op_class::IprAccess                      0      0.00%    100.00% # Class of executed instruction
system.cpu.op_class::InstPrefetch                   0      0.00%    100.00% # Class of executed instruction
system.cpu.op_class::total                       8779                       # Class of executed instruction
system.membus.snoop_filter.tot_requests             0                       # Total number of requests made to the snoop filter.
system.membus.snoop_filter.hit_single_requests            0                       # Number of requests hitting in the snoop filter with a single holder of the requested data.
system.membus.snoop_filter.hit_multi_requests            0                       # Number of requests hitting in the snoop filter with multiple (>1) holders of the requested data.
system.membus.snoop_filter.tot_snoops               0                       # Total number of snoops made to the snoop filter.
system.membus.snoop_filter.hit_single_snoops            0                       # Number of snoops hitting in the snoop filter with a single holder of the requested data.
system.membus.snoop_filter.hit_multi_snoops            0                       # Number of snoops hitting in the snoop filter with multiple (>1) holders of the requested data.
system.membus.pwrStateResidencyTicks::UNDEFINED     53446000                       # Cumulative time (in ticks) in various power states
system.membus.trans_dist::ReadReq                 673                       # Transaction distribution
system.membus.trans_dist::ReadResp                673                       # Transaction distribution
system.membus.trans_dist::WritebackDirty          545                       # Transaction distribution
system.membus.pkt_count_system.cache.mem_side::system.mem_ctrl.port         1891                       # Packet count per connected master and slave (bytes)
system.membus.pkt_count::total                   1891                       # Packet count per connected master and slave (bytes)
system.membus.pkt_size_system.cache.mem_side::system.mem_ctrl.port        77952                       # Cumulative packet size per connected master and slave (bytes)
system.membus.pkt_size::total                   77952                       # Cumulative packet size per connected master and slave (bytes)
system.membus.snoops                                0                       # Total snoops (count)
system.membus.snoopTraffic                          0                       # Total snoop traffic (bytes)
system.membus.snoop_fanout::samples               673                       # Request fanout histogram
system.membus.snoop_fanout::mean                    0                       # Request fanout histogram
system.membus.snoop_fanout::stdev                   0                       # Request fanout histogram
system.membus.snoop_fanout::underflows              0      0.00%      0.00% # Request fanout histogram
system.membus.snoop_fanout::0                     673    100.00%    100.00% # Request fanout histogram
system.membus.snoop_fanout::overflows               0      0.00%    100.00% # Request fanout histogram
system.membus.snoop_fanout::min_value               0                       # Request fanout histogram
system.membus.snoop_fanout::max_value               0                       # Request fanout histogram
system.membus.snoop_fanout::total                 673                       # Request fanout histogram
system.membus.reqLayer0.occupancy             3398000                       # Layer occupancy (ticks)
system.membus.reqLayer0.utilization               6.4                       # Layer utilization (%)
system.membus.respLayer0.occupancy            3569500                       # Layer occupancy (ticks)
system.membus.respLayer0.utilization              6.7                       # Layer utilization (%)

---------- End Simulation Statistics   ----------
