
---------- Begin Simulation Statistics ----------
sim_seconds                                  0.000051                       # Number of seconds simulated
sim_ticks                                    51214000                       # Number of ticks simulated
final_tick                                   51214000                       # Number of ticks from beginning of simulation (restored from checkpoints and never reset)
sim_freq                                 1000000000000                       # Frequency of simulated ticks
host_inst_rate                                 667641                       # Simulator instruction rate (inst/s)
host_op_rate                                   666323                       # Simulator op (including micro ops) rate (op/s)
host_tick_rate                             4387389703                       # Simulator tick rate (ticks/s)
host_mem_usage                                8484352                       # Number of bytes of host memory used
host_seconds                                     0.01                       # Real time elapsed on the host
sim_insts                                        7764                       # Number of instructions simulated
sim_ops                                          7764                       # Number of ops (including micro ops) simulated
system.clk_domain.voltage_domain.voltage            1                       # Voltage in Volts
system.clk_domain.clock                          1000                       # Clock period in ticks
system.mem_ctrl.pwrStateResidencyTicks::UNDEFINED     51214000                       # Cumulative time (in ticks) in various power states
system.mem_ctrl.bytes_read::cpu.inst            22080                       # Number of bytes read from this memory
system.mem_ctrl.bytes_read::cpu.data            18816                       # Number of bytes read from this memory
system.mem_ctrl.bytes_read::total               40896                       # Number of bytes read from this memory
system.mem_ctrl.bytes_inst_read::cpu.inst        22080                       # Number of instructions bytes read from this memory
system.mem_ctrl.bytes_inst_read::total          22080                       # Number of instructions bytes read from this memory
system.mem_ctrl.bytes_written::writebacks        32704                       # Number of bytes written to this memory
system.mem_ctrl.bytes_written::total            32704                       # Number of bytes written to this memory
system.mem_ctrl.num_reads::cpu.inst               345                       # Number of read requests responded to by this memory
system.mem_ctrl.num_reads::cpu.data               294                       # Number of read requests responded to by this memory
system.mem_ctrl.num_reads::total                  639                       # Number of read requests responded to by this memory
system.mem_ctrl.num_writes::writebacks            511                       # Number of write requests responded to by this memory
system.mem_ctrl.num_writes::total                 511                       # Number of write requests responded to by this memory
system.mem_ctrl.bw_read::cpu.inst           431132112                       # Total read bandwidth from this memory (bytes/s)
system.mem_ctrl.bw_read::cpu.data           367399539                       # Total read bandwidth from this memory (bytes/s)
system.mem_ctrl.bw_read::total              798531652                       # Total read bandwidth from this memory (bytes/s)
system.mem_ctrl.bw_inst_read::cpu.inst      431132112                       # Instruction read bandwidth from this memory (bytes/s)
system.mem_ctrl.bw_inst_read::total         431132112                       # Instruction read bandwidth from this memory (bytes/s)
system.mem_ctrl.bw_write::writebacks        638575390                       # Write bandwidth from this memory (bytes/s)
system.mem_ctrl.bw_write::total             638575390                       # Write bandwidth from this memory (bytes/s)
system.mem_ctrl.bw_total::writebacks        638575390                       # Total bandwidth to/from this memory (bytes/s)
system.mem_ctrl.bw_total::cpu.inst          431132112                       # Total bandwidth to/from this memory (bytes/s)
system.mem_ctrl.bw_total::cpu.data          367399539                       # Total bandwidth to/from this memory (bytes/s)
system.mem_ctrl.bw_total::total            1437107041                       # Total bandwidth to/from this memory (bytes/s)
system.mem_ctrl.readReqs                          639                       # Number of read requests accepted
system.mem_ctrl.writeReqs                         511                       # Number of write requests accepted
system.mem_ctrl.readBursts                        639                       # Number of DRAM read bursts, including those serviced by the write queue
system.mem_ctrl.writeBursts                       511                       # Number of DRAM write bursts, including those merged in the write queue
system.mem_ctrl.bytesReadDRAM                   37760                       # Total number of bytes read from DRAM
system.mem_ctrl.bytesReadWrQ                     3136                       # Total number of bytes read from write queue
system.mem_ctrl.bytesWritten                    30720                       # Total number of bytes written to DRAM
system.mem_ctrl.bytesReadSys                    40896                       # Total read bytes from the system interface side
system.mem_ctrl.bytesWrittenSys                 32704                       # Total written bytes from the system interface side
system.mem_ctrl.servicedByWrQ                      49                       # Number of DRAM read bursts serviced by the write queue
system.mem_ctrl.mergedWrBursts                      9                       # Number of DRAM write bursts merged with an existing one
system.mem_ctrl.neitherReadNorWriteReqs             0                       # Number of requests that are neither read nor write
system.mem_ctrl.perBankRdBursts::0                 76                       # Per bank write bursts
system.mem_ctrl.perBankRdBursts::1                 23                       # Per bank write bursts
system.mem_ctrl.perBankRdBursts::2                115                       # Per bank write bursts
system.mem_ctrl.perBankRdBursts::3                103                       # Per bank write bursts
system.mem_ctrl.perBankRdBursts::4                 73                       # Per bank write bursts
system.mem_ctrl.perBankRdBursts::5                 30                       # Per bank write bursts
system.mem_ctrl.perBankRdBursts::6                 10                       # Per bank write bursts
system.mem_ctrl.perBankRdBursts::7                  0                       # Per bank write bursts
system.mem_ctrl.perBankRdBursts::8                  3                       # Per bank write bursts
system.mem_ctrl.perBankRdBursts::9                 44                       # Per bank write bursts
system.mem_ctrl.perBankRdBursts::10                 6                       # Per bank write bursts
system.mem_ctrl.perBankRdBursts::11                 9                       # Per bank write bursts
system.mem_ctrl.perBankRdBursts::12                 4                       # Per bank write bursts
system.mem_ctrl.perBankRdBursts::13                27                       # Per bank write bursts
system.mem_ctrl.perBankRdBursts::14                42                       # Per bank write bursts
system.mem_ctrl.perBankRdBursts::15                25                       # Per bank write bursts
system.mem_ctrl.perBankWrBursts::0                 67                       # Per bank write bursts
system.mem_ctrl.perBankWrBursts::1                 23                       # Per bank write bursts
system.mem_ctrl.perBankWrBursts::2                104                       # Per bank write bursts
system.mem_ctrl.perBankWrBursts::3                 98                       # Per bank write bursts
system.mem_ctrl.perBankWrBursts::4                 67                       # Per bank write bursts
system.mem_ctrl.perBankWrBursts::5                 26                       # Per bank write bursts
system.mem_ctrl.perBankWrBursts::6                  6                       # Per bank write bursts
system.mem_ctrl.perBankWrBursts::7                  0                       # Per bank write bursts
system.mem_ctrl.perBankWrBursts::8                  1                       # Per bank write bursts
system.mem_ctrl.perBankWrBursts::9                 39                       # Per bank write bursts
system.mem_ctrl.perBankWrBursts::10                 6                       # Per bank write bursts
system.mem_ctrl.perBankWrBursts::11                 7                       # Per bank write bursts
system.mem_ctrl.perBankWrBursts::12                 2                       # Per bank write bursts
system.mem_ctrl.perBankWrBursts::13                 8                       # Per bank write bursts
system.mem_ctrl.perBankWrBursts::14                14                       # Per bank write bursts
system.mem_ctrl.perBankWrBursts::15                12                       # Per bank write bursts
system.mem_ctrl.numRdRetry                          0                       # Number of times read queue was full causing retry
system.mem_ctrl.numWrRetry                          0                       # Number of times write queue was full causing retry
system.mem_ctrl.totGap                       51206000                       # Total gap between requests
system.mem_ctrl.readPktSize::0                      0                       # Read request sizes (log2)
system.mem_ctrl.readPktSize::1                      0                       # Read request sizes (log2)
system.mem_ctrl.readPktSize::2                      0                       # Read request sizes (log2)
system.mem_ctrl.readPktSize::3                      0                       # Read request sizes (log2)
system.mem_ctrl.readPktSize::4                      0                       # Read request sizes (log2)
system.mem_ctrl.readPktSize::5                      0                       # Read request sizes (log2)
system.mem_ctrl.readPktSize::6                    639                       # Read request sizes (log2)
system.mem_ctrl.writePktSize::0                     0                       # Write request sizes (log2)
system.mem_ctrl.writePktSize::1                     0                       # Write request sizes (log2)
system.mem_ctrl.writePktSize::2                     0                       # Write request sizes (log2)
system.mem_ctrl.writePktSize::3                     0                       # Write request sizes (log2)
system.mem_ctrl.writePktSize::4                     0                       # Write request sizes (log2)
system.mem_ctrl.writePktSize::5                     0                       # Write request sizes (log2)
system.mem_ctrl.writePktSize::6                   511                       # Write request sizes (log2)
system.mem_ctrl.rdQLenPdf::0                      590                       # What read queue length does an incoming req see
system.mem_ctrl.rdQLenPdf::1                        0                       # What read queue length does an incoming req see
system.mem_ctrl.rdQLenPdf::2                        0                       # What read queue length does an incoming req see
system.mem_ctrl.rdQLenPdf::3                        0                       # What read queue length does an incoming req see
system.mem_ctrl.rdQLenPdf::4                        0                       # What read queue length does an incoming req see
system.mem_ctrl.rdQLenPdf::5                        0                       # What read queue length does an incoming req see
system.mem_ctrl.rdQLenPdf::6                        0                       # What read queue length does an incoming req see
system.mem_ctrl.rdQLenPdf::7                        0                       # What read queue length does an incoming req see
system.mem_ctrl.rdQLenPdf::8                        0                       # What read queue length does an incoming req see
system.mem_ctrl.rdQLenPdf::9                        0                       # What read queue length does an incoming req see
system.mem_ctrl.rdQLenPdf::10                       0                       # What read queue length does an incoming req see
system.mem_ctrl.rdQLenPdf::11                       0                       # What read queue length does an incoming req see
system.mem_ctrl.rdQLenPdf::12                       0                       # What read queue length does an incoming req see
system.mem_ctrl.rdQLenPdf::13                       0                       # What read queue length does an incoming req see
system.mem_ctrl.rdQLenPdf::14                       0                       # What read queue length does an incoming req see
system.mem_ctrl.rdQLenPdf::15                       0                       # What read queue length does an incoming req see
system.mem_ctrl.rdQLenPdf::16                       0                       # What read queue length does an incoming req see
system.mem_ctrl.rdQLenPdf::17                       0                       # What read queue length does an incoming req see
system.mem_ctrl.rdQLenPdf::18                       0                       # What read queue length does an incoming req see
system.mem_ctrl.rdQLenPdf::19                       0                       # What read queue length does an incoming req see
system.mem_ctrl.rdQLenPdf::20                       0                       # What read queue length does an incoming req see
system.mem_ctrl.rdQLenPdf::21                       0                       # What read queue length does an incoming req see
system.mem_ctrl.rdQLenPdf::22                       0                       # What read queue length does an incoming req see
system.mem_ctrl.rdQLenPdf::23                       0                       # What read queue length does an incoming req see
system.mem_ctrl.rdQLenPdf::24                       0                       # What read queue length does an incoming req see
system.mem_ctrl.rdQLenPdf::25                       0                       # What read queue length does an incoming req see
system.mem_ctrl.rdQLenPdf::26                       0                       # What read queue length does an incoming req see
system.mem_ctrl.rdQLenPdf::27                       0                       # What read queue length does an incoming req see
system.mem_ctrl.rdQLenPdf::28                       0                       # What read queue length does an incoming req see
system.mem_ctrl.rdQLenPdf::29                       0                       # What read queue length does an incoming req see
system.mem_ctrl.rdQLenPdf::30                       0                       # What read queue length does an incoming req see
system.mem_ctrl.rdQLenPdf::31                       0                       # What read queue length does an incoming req see
system.mem_ctrl.wrQLenPdf::0                        1                       # What write queue length does an incoming req see
system.mem_ctrl.wrQLenPdf::1                        1                       # What write queue length does an incoming req see
system.mem_ctrl.wrQLenPdf::2                        1                       # What write queue length does an incoming req see
system.mem_ctrl.wrQLenPdf::3                        1                       # What write queue length does an incoming req see
system.mem_ctrl.wrQLenPdf::4                        1                       # What write queue length does an incoming req see
system.mem_ctrl.wrQLenPdf::5                        1                       # What write queue length does an incoming req see
system.mem_ctrl.wrQLenPdf::6                        1                       # What write queue length does an incoming req see
system.mem_ctrl.wrQLenPdf::7                        1                       # What write queue length does an incoming req see
system.mem_ctrl.wrQLenPdf::8                        1                       # What write queue length does an incoming req see
system.mem_ctrl.wrQLenPdf::9                        1                       # What write queue length does an incoming req see
system.mem_ctrl.wrQLenPdf::10                       1                       # What write queue length does an incoming req see
system.mem_ctrl.wrQLenPdf::11                       1                       # What write queue length does an incoming req see
system.mem_ctrl.wrQLenPdf::12                       1                       # What write queue length does an incoming req see
system.mem_ctrl.wrQLenPdf::13                       1                       # What write queue length does an incoming req see
system.mem_ctrl.wrQLenPdf::14                       1                       # What write queue length does an incoming req see
system.mem_ctrl.wrQLenPdf::15                       1                       # What write queue length does an incoming req see
system.mem_ctrl.wrQLenPdf::16                       1                       # What write queue length does an incoming req see
system.mem_ctrl.wrQLenPdf::17                      30                       # What write queue length does an incoming req see
system.mem_ctrl.wrQLenPdf::18                      31                       # What write queue length does an incoming req see
system.mem_ctrl.wrQLenPdf::19                      31                       # What write queue length does an incoming req see
system.mem_ctrl.wrQLenPdf::20                      32                       # What write queue length does an incoming req see
system.mem_ctrl.wrQLenPdf::21                      31                       # What write queue length does an incoming req see
system.mem_ctrl.wrQLenPdf::22                      30                       # What write queue length does an incoming req see
system.mem_ctrl.wrQLenPdf::23                      30                       # What write queue length does an incoming req see
system.mem_ctrl.wrQLenPdf::24                      30                       # What write queue length does an incoming req see
system.mem_ctrl.wrQLenPdf::25                      30                       # What write queue length does an incoming req see
system.mem_ctrl.wrQLenPdf::26                      30                       # What write queue length does an incoming req see
system.mem_ctrl.wrQLenPdf::27                      30                       # What write queue length does an incoming req see
system.mem_ctrl.wrQLenPdf::28                      30                       # What write queue length does an incoming req see
system.mem_ctrl.wrQLenPdf::29                      30                       # What write queue length does an incoming req see
system.mem_ctrl.wrQLenPdf::30                      30                       # What write queue length does an incoming req see
system.mem_ctrl.wrQLenPdf::31                      30                       # What write queue length does an incoming req see
system.mem_ctrl.wrQLenPdf::32                      30                       # What write queue length does an incoming req see
system.mem_ctrl.wrQLenPdf::33                       0                       # What write queue length does an incoming req see
system.mem_ctrl.wrQLenPdf::34                       0                       # What write queue length does an incoming req see
system.mem_ctrl.wrQLenPdf::35                       0                       # What write queue length does an incoming req see
system.mem_ctrl.wrQLenPdf::36                       0                       # What write queue length does an incoming req see
system.mem_ctrl.wrQLenPdf::37                       0                       # What write queue length does an incoming req see
system.mem_ctrl.wrQLenPdf::38                       0                       # What write queue length does an incoming req see
system.mem_ctrl.wrQLenPdf::39                       0                       # What write queue length does an incoming req see
system.mem_ctrl.wrQLenPdf::40                       0                       # What write queue length does an incoming req see
system.mem_ctrl.wrQLenPdf::41                       0                       # What write queue length does an incoming req see
system.mem_ctrl.wrQLenPdf::42                       0                       # What write queue length does an incoming req see
system.mem_ctrl.wrQLenPdf::43                       0                       # What write queue length does an incoming req see
system.mem_ctrl.wrQLenPdf::44                       0                       # What write queue length does an incoming req see
system.mem_ctrl.wrQLenPdf::45                       0                       # What write queue length does an incoming req see
system.mem_ctrl.wrQLenPdf::46                       0                       # What write queue length does an incoming req see
system.mem_ctrl.wrQLenPdf::47                       0                       # What write queue length does an incoming req see
system.mem_ctrl.wrQLenPdf::48                       0                       # What write queue length does an incoming req see
system.mem_ctrl.wrQLenPdf::49                       0                       # What write queue length does an incoming req see
system.mem_ctrl.wrQLenPdf::50                       0                       # What write queue length does an incoming req see
system.mem_ctrl.wrQLenPdf::51                       0                       # What write queue length does an incoming req see
system.mem_ctrl.wrQLenPdf::52                       0                       # What write queue length does an incoming req see
system.mem_ctrl.wrQLenPdf::53                       0                       # What write queue length does an incoming req see
system.mem_ctrl.wrQLenPdf::54                       0                       # What write queue length does an incoming req see
system.mem_ctrl.wrQLenPdf::55                       0                       # What write queue length does an incoming req see
system.mem_ctrl.wrQLenPdf::56                       0                       # What write queue length does an incoming req see
system.mem_ctrl.wrQLenPdf::57                       0                       # What write queue length does an incoming req see
system.mem_ctrl.wrQLenPdf::58                       0                       # What write queue length does an incoming req see
system.mem_ctrl.wrQLenPdf::59                       0                       # What write queue length does an incoming req see
system.mem_ctrl.wrQLenPdf::60                       0                       # What write queue length does an incoming req see
system.mem_ctrl.wrQLenPdf::61                       0                       # What write queue length does an incoming req see
system.mem_ctrl.wrQLenPdf::62                       0                       # What write queue length does an incoming req see
system.mem_ctrl.wrQLenPdf::63                       0                       # What write queue length does an incoming req see
system.mem_ctrl.bytesPerActivate::samples          199                       # Bytes accessed per row activation
system.mem_ctrl.bytesPerActivate::mean     322.894472                       # Bytes accessed per row activation
system.mem_ctrl.bytesPerActivate::gmean    205.401491                       # Bytes accessed per row activation
system.mem_ctrl.bytesPerActivate::stdev    307.289986                       # Bytes accessed per row activation
system.mem_ctrl.bytesPerActivate::0-127            57     28.64%     28.64% # Bytes accessed per row activation
system.mem_ctrl.bytesPerActivate::128-255           56     28.14%     56.78% # Bytes accessed per row activation
system.mem_ctrl.bytesPerActivate::256-383           21     10.55%     67.34% # Bytes accessed per row activation
system.mem_ctrl.bytesPerActivate::384-511           11      5.53%     72.86% # Bytes accessed per row activation
system.mem_ctrl.bytesPerActivate::512-639           19      9.55%     82.41% # Bytes accessed per row activation
system.mem_ctrl.bytesPerActivate::640-767            8      4.02%     86.43% # Bytes accessed per row activation
system.mem_ctrl.bytesPerActivate::768-895            6      3.02%     89.45% # Bytes accessed per row activation
system.mem_ctrl.bytesPerActivate::896-1023            4      2.01%     91.46% # Bytes accessed per row activation
system.mem_ctrl.bytesPerActivate::1024-1151           17      8.54%    100.00% # Bytes accessed per row activation
system.mem_ctrl.bytesPerActivate::total           199                       # Bytes accessed per row activation
system.mem_ctrl.rdPerTurnAround::samples           30                       # Reads before turning the bus around for writes
system.mem_ctrl.rdPerTurnAround::mean       19.500000                       # Reads before turning the bus around for writes
system.mem_ctrl.rdPerTurnAround::gmean      15.764381                       # Reads before turning the bus around for writes
system.mem_ctrl.rdPerTurnAround::stdev      26.761720                       # Reads before turning the bus around for writes
system.mem_ctrl.rdPerTurnAround::8-15              20     66.67%     66.67% # Reads before turning the bus around for writes
system.mem_ctrl.rdPerTurnAround::16-23              9     30.00%     96.67% # Reads before turning the bus around for writes
system.mem_ctrl.rdPerTurnAround::160-167            1      3.33%    100.00% # Reads before turning the bus around for writes
system.mem_ctrl.rdPerTurnAround::total             30                       # Reads before turning the bus around for writes
system.mem_ctrl.wrPerTurnAround::samples           30                       # Writes before turning the bus around for reads
system.mem_ctrl.wrPerTurnAround::mean              16                       # Writes before turning the bus around for reads
system.mem_ctrl.wrPerTurnAround::gmean      16.000000                       # Writes before turning the bus around for reads
system.mem_ctrl.wrPerTurnAround::16                30    100.00%    100.00% # Writes before turning the bus around for reads
system.mem_ctrl.wrPerTurnAround::total             30                       # Writes before turning the bus around for reads
system.mem_ctrl.totQLat                      10427250                       # Total ticks spent queuing
system.mem_ctrl.totMemAccLat                 21489750                       # Total ticks spent from burst creation until serviced by the DRAM
system.mem_ctrl.totBusLat                     2950000                       # Total ticks spent in databus transfers
system.mem_ctrl.avgQLat                      17673.31                       # Average queueing delay per DRAM burst
system.mem_ctrl.avgBusLat                     5000.00                       # Average bus latency per DRAM burst
system.mem_ctrl.avgMemAccLat                 36423.31                       # Average memory access latency per DRAM burst
system.mem_ctrl.avgRdBW                        737.30                       # Average DRAM read bandwidth in MiByte/s
system.mem_ctrl.avgWrBW                        599.84                       # Average achieved write bandwidth in MiByte/s
system.mem_ctrl.avgRdBWSys                     798.53                       # Average system read bandwidth in MiByte/s
system.mem_ctrl.avgWrBWSys                     638.58                       # Average system write bandwidth in MiByte/s
system.mem_ctrl.peakBW                       12800.00                       # Theoretical peak bandwidth in MiByte/s
system.mem_ctrl.busUtil                         10.45                       # Data bus utilization in percentage
system.mem_ctrl.busUtilRead                      5.76                       # Data bus utilization in percentage for reads
system.mem_ctrl.busUtilWrite                     4.69                       # Data bus utilization in percentage for writes
system.mem_ctrl.avgRdQLen                        1.00                       # Average read queue length when enqueuing
system.mem_ctrl.avgWrQLen                       21.13                       # Average write queue length when enqueuing
system.mem_ctrl.readRowHits                       431                       # Number of row buffer hits during reads
system.mem_ctrl.writeRowHits                      428                       # Number of row buffer hits during writes
system.mem_ctrl.readRowHitRate                  73.05                       # Row buffer hit rate for reads
system.mem_ctrl.writeRowHitRate                 85.26                       # Row buffer hit rate for writes
system.mem_ctrl.avgGap                       44526.96                       # Average gap between requests
system.mem_ctrl.pageHitRate                     78.66                       # Row buffer hit rate, read and write combined
system.mem_ctrl_0.actEnergy                   1199520                       # Energy for activate commands per rank (pJ)
system.mem_ctrl_0.preEnergy                    618585                       # Energy for precharge commands per rank (pJ)
system.mem_ctrl_0.readEnergy                  3070200                       # Energy for read commands per rank (pJ)
system.mem_ctrl_0.writeEnergy                 2041020                       # Energy for write commands per rank (pJ)
system.mem_ctrl_0.refreshEnergy          3687840.000000                       # Energy for refresh commands per rank (pJ)
system.mem_ctrl_0.actBackEnergy               9169590                       # Energy for active background per rank (pJ)
system.mem_ctrl_0.preBackEnergy                 75840                       # Energy for precharge background per rank (pJ)
system.mem_ctrl_0.actPowerDownEnergy         13936500                       # Energy for active power-down per rank (pJ)
system.mem_ctrl_0.prePowerDownEnergy           132960                       # Energy for precharge power-down per rank (pJ)
system.mem_ctrl_0.selfRefreshEnergy                 0                       # Energy for self refresh per rank (pJ)
system.mem_ctrl_0.totalEnergy                33932055                       # Total energy per rank (pJ)
system.mem_ctrl_0.averagePower             662.541345                       # Core power per rank (mW)
system.mem_ctrl_0.totalIdleTime              30868750                       # Total Idle time Per DRAM Rank
system.mem_ctrl_0.memoryStateTime::IDLE         31000                       # Time in different power states
system.mem_ctrl_0.memoryStateTime::REF        1560000                       # Time in different power states
system.mem_ctrl_0.memoryStateTime::SREF             0                       # Time in different power states
system.mem_ctrl_0.memoryStateTime::PRE_PDN       346000                       # Time in different power states
system.mem_ctrl_0.memoryStateTime::ACT       18717000                       # Time in different power states
system.mem_ctrl_0.memoryStateTime::ACT_PDN     30560000                       # Time in different power states
system.mem_ctrl_1.actEnergy                    307020                       # Energy for activate commands per rank (pJ)
system.mem_ctrl_1.preEnergy                    136620                       # Energy for precharge commands per rank (pJ)
system.mem_ctrl_1.readEnergy                  1142400                       # Energy for read commands per rank (pJ)
system.mem_ctrl_1.writeEnergy                  464580                       # Energy for write commands per rank (pJ)
system.mem_ctrl_1.refreshEnergy          3687840.000000                       # Energy for refresh commands per rank (pJ)
system.mem_ctrl_1.actBackEnergy               7097640                       # Energy for active background per rank (pJ)
system.mem_ctrl_1.preBackEnergy                236640                       # Energy for precharge background per rank (pJ)
system.mem_ctrl_1.actPowerDownEnergy         15258900                       # Energy for active power-down per rank (pJ)
system.mem_ctrl_1.prePowerDownEnergy           603360                       # Energy for precharge power-down per rank (pJ)
system.mem_ctrl_1.selfRefreshEnergy                 0                       # Energy for self refresh per rank (pJ)
system.mem_ctrl_1.totalEnergy                28935000                       # Total energy per rank (pJ)
system.mem_ctrl_1.averagePower             564.971200                       # Core power per rank (mW)
system.mem_ctrl_1.totalIdleTime              34771250                       # Total Idle time Per DRAM Rank
system.mem_ctrl_1.memoryStateTime::IDLE        450000                       # Time in different power states
system.mem_ctrl_1.memoryStateTime::REF        1560000                       # Time in different power states
system.mem_ctrl_1.memoryStateTime::SREF             0                       # Time in different power states
system.mem_ctrl_1.memoryStateTime::PRE_PDN      1571000                       # Time in different power states
system.mem_ctrl_1.memoryStateTime::ACT       14162500                       # Time in different power states
system.mem_ctrl_1.memoryStateTime::ACT_PDN     33470500                       # Time in different power states
system.pwrStateResidencyTicks::UNDEFINED     51214000                       # Cumulative time (in ticks) in various power states
system.cache.pwrStateResidencyTicks::UNDEFINED     51214000                       # Cumulative time (in ticks) in various power states
system.cache.hits                                9699                       # Number of hits
system.cache.misses                               639                       # Number of misses
system.cache.missLatency::samples                 639                       # Ticks for misses to the cache
system.cache.missLatency::mean           63968.701095                       # Ticks for misses to the cache
system.cache.missLatency::gmean          58484.092737                       # Ticks for misses to the cache
system.cache.missLatency::stdev          34358.413616                       # Ticks for misses to the cache
system.cache.missLatency::0-32767                  49      7.67%      7.67% # Ticks for misses to the cache
system.cache.missLatency::32768-65535             423     66.20%     73.87% # Ticks for misses to the cache
system.cache.missLatency::65536-98303             132     20.66%     94.52% # Ticks for misses to the cache
system.cache.missLatency::98304-131071              3      0.47%     94.99% # Ticks for misses to the cache
system.cache.missLatency::131072-163839            21      3.29%     98.28% # Ticks for misses to the cache
system.cache.missLatency::163840-196607             5      0.78%     99.06% # Ticks for misses to the cache
system.cache.missLatency::196608-229375             0      0.00%     99.06% # Ticks for misses to the cache
system.cache.missLatency::229376-262143             0      0.00%     99.06% # Ticks for misses to the cache
system.cache.missLatency::262144-294911             1      0.16%     99.22% # Ticks for misses to the cache
system.cache.missLatency::294912-327679             3      0.47%     99.69% # Ticks for misses to the cache
system.cache.missLatency::327680-360447             2      0.31%    100.00% # Ticks for misses to the cache
system.cache.missLatency::360448-393215             0      0.00%    100.00% # Ticks for misses to the cache
system.cache.missLatency::393216-425983             0      0.00%    100.00% # Ticks for misses to the cache
system.cache.missLatency::425984-458751             0      0.00%    100.00% # Ticks for misses to the cache
system.cache.missLatency::458752-491519             0      0.00%    100.00% # Ticks for misses to the cache
system.cache.missLatency::491520-524287             0      0.00%    100.00% # Ticks for misses to the cache
system.cache.missLatency::total                   639                       # Ticks for misses to the cache
system.cache.hitRatio                        0.938189                       # The ratio of hits to the total accesses to the cache
system.cpu.dtb.fetch_hits                           0                       # ITB hits
system.cpu.dtb.fetch_misses                         0                       # ITB misses
system.cpu.dtb.fetch_acv                            0                       # ITB acv
system.cpu.dtb.fetch_accesses                       0                       # ITB accesses
system.cpu.dtb.read_hits                         1526                       # DTB read hits
system.cpu.dtb.read_misses                         10                       # DTB read misses
system.cpu.dtb.read_acv                             0                       # DTB read access violations
system.cpu.dtb.read_accesses                     1536                       # DTB read accesses
system.cpu.dtb.write_hits                        1036                       # DTB write hits
system.cpu.dtb.write_misses                         2                       # DTB write misses
system.cpu.dtb.write_acv                            0                       # DTB write access violations
system.cpu.dtb.write_accesses                    1038                       # DTB write accesses
system.cpu.dtb.data_hits                         2562                       # DTB hits
system.cpu.dtb.data_misses                         12                       # DTB misses
system.cpu.dtb.data_acv                             0                       # DTB access violations
system.cpu.dtb.data_accesses                     2574                       # DTB accesses
system.cpu.itb.fetch_hits                        7777                       # ITB hits
system.cpu.itb.fetch_misses                        18                       # ITB misses
system.cpu.itb.fetch_acv                            0                       # ITB acv
system.cpu.itb.fetch_accesses                    7795                       # ITB accesses
system.cpu.itb.read_hits                            0                       # DTB read hits
system.cpu.itb.read_misses                          0                       # DTB read misses
system.cpu.itb.read_acv                             0                       # DTB read access violations
system.cpu.itb.read_accesses                        0                       # DTB read accesses
system.cpu.itb.write_hits                           0                       # DTB write hits
system.cpu.itb.write_misses                         0                       # DTB write misses
system.cpu.itb.write_acv                            0                       # DTB write access violations
system.cpu.itb.write_accesses                       0                       # DTB write accesses
system.cpu.itb.data_hits                            0                       # DTB hits
system.cpu.itb.data_misses                          0                       # DTB misses
system.cpu.itb.data_acv                             0                       # DTB access violations
system.cpu.itb.data_accesses                        0                       # DTB accesses
system.cpu.workload.numSyscalls                    10                       # Number of system calls
system.cpu.pwrStateResidencyTicks::ON        51214000                       # Cumulative time (in ticks) in various power states
system.cpu.numCycles                            51214                       # number of cpu cycles simulated
system.cpu.numWorkItemsStarted                      0                       # number of work items this cpu started
system.cpu.numWorkItemsCompleted                    0                       # number of work items this cpu completed
system.cpu.committedInsts                        7764                       # Number of instructions committed
system.cpu.committedOps                          7764                       # Number of ops (including micro ops) committed
system.cpu.num_int_alu_accesses                  7679                       # Number of integer alu accesses
system.cpu.num_fp_alu_accesses                     17                       # Number of float alu accesses
system.cpu.num_vec_alu_accesses                     0                       # Number of vector alu accesses
system.cpu.num_func_calls                         259                       # number of times a function call or return occured
system.cpu.num_conditional_control_insts          906                       # number of instructions that are conditional controls
system.cpu.num_int_insts                         7679                       # number of integer instructions
system.cpu.num_fp_insts                            17                       # number of float instructions
system.cpu.num_vec_insts                            0                       # number of vector instructions
system.cpu.num_int_register_reads               10227                       # number of times the integer registers were read
system.cpu.num_int_register_writes               5586                       # number of times the integer registers were written
system.cpu.num_fp_register_reads                   14                       # number of times the floating registers were read
system.cpu.num_fp_register_writes                   5                       # number of times the floating registers were written
system.cpu.num_vec_register_reads                   0                       # number of times the vector registers were read
system.cpu.num_vec_register_writes                  0                       # number of times the vector registers were written
system.cpu.num_mem_refs                          2574                       # number of memory refs
system.cpu.num_load_insts                        1536                       # Number of load instructions
system.cpu.num_store_insts                       1038                       # Number of store instructions
system.cpu.num_idle_cycles                          0                       # Number of idle cycles
system.cpu.num_busy_cycles                      51214                       # Number of busy cycles
system.cpu.not_idle_fraction                        1                       # Percentage of non-idle cycles
system.cpu.idle_fraction                            0                       # Percentage of idle cycles
system.cpu.Branches                              1240                       # Number of branches fetched
system.cpu.op_class::No_OpClass                    22      0.28%      0.28% # Class of executed instruction
system.cpu.op_class::IntAlu                      5175     66.55%     66.83% # Class of executed instruction
system.cpu.op_class::IntMult                        1      0.01%     66.85% # Class of executed instruction
system.cpu.op_class::IntDiv                         0      0.00%     66.85% # Class of executed instruction
system.cpu.op_class::FloatAdd                       3      0.04%     66.89% # Class of executed instruction
system.cpu.op_class::FloatCmp                       1      0.01%     66.90% # Class of executed instruction
system.cpu.op_class::FloatCvt                       0      0.00%     66.90% # Class of executed instruction
system.cpu.op_class::FloatMult                      0      0.00%     66.90% # Class of executed instruction
system.cpu.op_class::FloatMultAcc                   0      0.00%     66.90% # Class of executed instruction
system.cpu.op_class::FloatDiv                       0      0.00%     66.90% # Class of executed instruction
system.cpu.op_class::FloatMisc                      0      0.00%     66.90% # Class of executed instruction
system.cpu.op_class::FloatSqrt                      0      0.00%     66.90% # Class of executed instruction
system.cpu.op_class::SimdAdd                        0      0.00%     66.90% # Class of executed instruction
system.cpu.op_class::SimdAddAcc                     0      0.00%     66.90% # Class of executed instruction
system.cpu.op_class::SimdAlu                        0      0.00%     66.90% # Class of executed instruction
system.cpu.op_class::SimdCmp                        0      0.00%     66.90% # Class of executed instruction
system.cpu.op_class::SimdCvt                        0      0.00%     66.90% # Class of executed instruction
system.cpu.op_class::SimdMisc                       0      0.00%     66.90% # Class of executed instruction
system.cpu.op_class::SimdMult                       0      0.00%     66.90% # Class of executed instruction
system.cpu.op_class::SimdMultAcc                    0      0.00%     66.90% # Class of executed instruction
system.cpu.op_class::SimdShift                      0      0.00%     66.90% # Class of executed instruction
system.cpu.op_class::SimdShiftAcc                   0      0.00%     66.90% # Class of executed instruction
system.cpu.op_class::SimdSqrt                       0      0.00%     66.90% # Class of executed instruction
system.cpu.op_class::SimdFloatAdd                   0      0.00%     66.90% # Class of executed instruction
system.cpu.op_class::SimdFloatAlu                   0      0.00%     66.90% # Class of executed instruction
system.cpu.op_class::SimdFloatCmp                   0      0.00%     66.90% # Class of executed instruction
system.cpu.op_class::SimdFloatCvt                   0      0.00%     66.90% # Class of executed instruction
system.cpu.op_class::SimdFloatDiv                   0      0.00%     66.90% # Class of executed instruction
system.cpu.op_class::SimdFloatMisc                  0      0.00%     66.90% # Class of executed instruction
system.cpu.op_class::SimdFloatMult                  0      0.00%     66.90% # Class of executed instruction
system.cpu.op_class::SimdFloatMultAcc               0      0.00%     66.90% # Class of executed instruction
system.cpu.op_class::SimdFloatSqrt                  0      0.00%     66.90% # Class of executed instruction
system.cpu.op_class::MemRead                     1533     19.71%     86.61% # Class of executed instruction
system.cpu.op_class::MemWrite                    1028     13.22%     99.83% # Class of executed instruction
system.cpu.op_class::FloatMemRead                   3      0.04%     99.87% # Class of executed instruction
system.cpu.op_class::FloatMemWrite                 10      0.13%    100.00% # Class of executed instruction
system.cpu.op_class::IprAccess                      0      0.00%    100.00% # Class of executed instruction
system.cpu.op_class::InstPrefetch                   0      0.00%    100.00% # Class of executed instruction
system.cpu.op_class::total                       7776                       # Class of executed instruction
system.membus.snoop_filter.tot_requests             0                       # Total number of requests made to the snoop filter.
system.membus.snoop_filter.hit_single_requests            0                       # Number of requests hitting in the snoop filter with a single holder of the requested data.
system.membus.snoop_filter.hit_multi_requests            0                       # Number of requests hitting in the snoop filter with multiple (>1) holders of the requested data.
system.membus.snoop_filter.tot_snoops               0                       # Total number of snoops made to the snoop filter.
system.membus.snoop_filter.hit_single_snoops            0                       # Number of snoops hitting in the snoop filter with a single holder of the requested data.
system.membus.snoop_filter.hit_multi_snoops            0                       # Number of snoops hitting in the snoop filter with multiple (>1) holders of the requested data.
system.membus.pwrStateResidencyTicks::UNDEFINED     51214000                       # Cumulative time (in ticks) in various power states
system.membus.trans_dist::ReadReq                 639                       # Transaction distribution
system.membus.trans_dist::ReadResp                639                       # Transaction distribution
system.membus.trans_dist::WritebackDirty          511                       # Transaction distribution
system.membus.pkt_count_system.cache.mem_side::system.mem_ctrl.port         1789                       # Packet count per connected master and slave (bytes)
system.membus.pkt_count::total                   1789                       # Packet count per connected master and slave (bytes)
system.membus.pkt_size_system.cache.mem_side::system.mem_ctrl.port        73600                       # Cumulative packet size per connected master and slave (bytes)
system.membus.pkt_size::total                   73600                       # Cumulative packet size per connected master and slave (bytes)
system.membus.snoops                                0                       # Total snoops (count)
system.membus.snoopTraffic                          0                       # Total snoop traffic (bytes)
system.membus.snoop_fanout::samples               639                       # Request fanout histogram
system.membus.snoop_fanout::mean                    0                       # Request fanout histogram
system.membus.snoop_fanout::stdev                   0                       # Request fanout histogram
system.membus.snoop_fanout::underflows              0      0.00%      0.00% # Request fanout histogram
system.membus.snoop_fanout::0                     639    100.00%    100.00% # Request fanout histogram
system.membus.snoop_fanout::overflows               0      0.00%    100.00% # Request fanout histogram
system.membus.snoop_fanout::min_value               0                       # Request fanout histogram
system.membus.snoop_fanout::max_value               0                       # Request fanout histogram
system.membus.snoop_fanout::total                 639                       # Request fanout histogram
system.membus.reqLayer0.occupancy             3194000                       # Layer occupancy (ticks)
system.membus.reqLayer0.utilization               6.2                       # Layer utilization (%)
system.membus.respLayer0.occupancy            3395250                       # Layer occupancy (ticks)
system.membus.respLayer0.utilization              6.6                       # Layer utilization (%)

---------- End Simulation Statistics   ----------
