
---------- Begin Simulation Statistics ----------
sim_seconds                                  0.830254                       # Number of seconds simulated
sim_ticks                                830254457000                       # Number of ticks simulated
final_tick                               830254457000                       # Number of ticks from beginning of simulation (restored from checkpoints and never reset)
sim_freq                                 1000000000000                       # Frequency of simulated ticks
host_inst_rate                                 319282                       # Simulator instruction rate (inst/s)
host_op_rate                                   319282                       # Simulator op (including micro ops) rate (op/s)
host_tick_rate                             6023438322                       # Simulator tick rate (ticks/s)
host_mem_usage                                7219384                       # Number of bytes of host memory used
host_seconds                                   137.84                       # Real time elapsed on the host
sim_insts                                    44008983                       # Number of instructions simulated
sim_ops                                      44008983                       # Number of ops (including micro ops) simulated
system.clk_domain.voltage_domain.voltage            1                       # Voltage in Volts
system.clk_domain.clock                          1000                       # Clock period in ticks
system.mem_ctrl.pwrStateResidencyTicks::UNDEFINED 830254457000                       # Cumulative time (in ticks) in various power states
system.mem_ctrl.bytes_read::cpu.inst       1209609536                       # Number of bytes read from this memory
system.mem_ctrl.bytes_read::cpu.data        889616448                       # Number of bytes read from this memory
system.mem_ctrl.bytes_read::total          2099225984                       # Number of bytes read from this memory
system.mem_ctrl.bytes_inst_read::cpu.inst   1209609536                       # Number of instructions bytes read from this memory
system.mem_ctrl.bytes_inst_read::total     1209609536                       # Number of instructions bytes read from this memory
system.mem_ctrl.bytes_written::writebacks   2099193216                       # Number of bytes written to this memory
system.mem_ctrl.bytes_written::total       2099193216                       # Number of bytes written to this memory
system.mem_ctrl.num_reads::cpu.inst          18900149                       # Number of read requests responded to by this memory
system.mem_ctrl.num_reads::cpu.data          13900257                       # Number of read requests responded to by this memory
system.mem_ctrl.num_reads::total             32800406                       # Number of read requests responded to by this memory
system.mem_ctrl.num_writes::writebacks       32799894                       # Number of write requests responded to by this memory
system.mem_ctrl.num_writes::total            32799894                       # Number of write requests responded to by this memory
system.mem_ctrl.bw_read::cpu.inst          1456914234                       # Total read bandwidth from this memory (bytes/s)
system.mem_ctrl.bw_read::cpu.data          1071498551                       # Total read bandwidth from this memory (bytes/s)
system.mem_ctrl.bw_read::total             2528412785                       # Total read bandwidth from this memory (bytes/s)
system.mem_ctrl.bw_inst_read::cpu.inst     1456914234                       # Instruction read bandwidth from this memory (bytes/s)
system.mem_ctrl.bw_inst_read::total        1456914234                       # Instruction read bandwidth from this memory (bytes/s)
system.mem_ctrl.bw_write::writebacks       2528373318                       # Write bandwidth from this memory (bytes/s)
system.mem_ctrl.bw_write::total            2528373318                       # Write bandwidth from this memory (bytes/s)
system.mem_ctrl.bw_total::writebacks       2528373318                       # Total bandwidth to/from this memory (bytes/s)
system.mem_ctrl.bw_total::cpu.inst         1456914234                       # Total bandwidth to/from this memory (bytes/s)
system.mem_ctrl.bw_total::cpu.data         1071498551                       # Total bandwidth to/from this memory (bytes/s)
system.mem_ctrl.bw_total::total            5056786103                       # Total bandwidth to/from this memory (bytes/s)
system.mem_ctrl.readReqs                     32800406                       # Number of read requests accepted
system.mem_ctrl.writeReqs                    32799894                       # Number of write requests accepted
system.mem_ctrl.readBursts                   32800406                       # Number of DRAM read bursts, including those serviced by the write queue
system.mem_ctrl.writeBursts                  32799894                       # Number of DRAM write bursts, including those merged in the write queue
system.mem_ctrl.bytesReadDRAM                 8651200                       # Total number of bytes read from DRAM
system.mem_ctrl.bytesReadWrQ               2090574784                       # Total number of bytes read from write queue
system.mem_ctrl.bytesWritten                  9160320                       # Total number of bytes written to DRAM
system.mem_ctrl.bytesReadSys               2099225984                       # Total read bytes from the system interface side
system.mem_ctrl.bytesWrittenSys            2099193216                       # Total written bytes from the system interface side
system.mem_ctrl.servicedByWrQ                32665231                       # Number of DRAM read bursts serviced by the write queue
system.mem_ctrl.mergedWrBursts               32656737                       # Number of DRAM write bursts merged with an existing one
system.mem_ctrl.neitherReadNorWriteReqs             0                       # Number of requests that are neither read nor write
system.mem_ctrl.perBankRdBursts::0              12225                       # Per bank write bursts
system.mem_ctrl.perBankRdBursts::1               8291                       # Per bank write bursts
system.mem_ctrl.perBankRdBursts::2               9947                       # Per bank write bursts
system.mem_ctrl.perBankRdBursts::3               8075                       # Per bank write bursts
system.mem_ctrl.perBankRdBursts::4               8066                       # Per bank write bursts
system.mem_ctrl.perBankRdBursts::5               7962                       # Per bank write bursts
system.mem_ctrl.perBankRdBursts::6               7957                       # Per bank write bursts
system.mem_ctrl.perBankRdBursts::7               7874                       # Per bank write bursts
system.mem_ctrl.perBankRdBursts::8               7906                       # Per bank write bursts
system.mem_ctrl.perBankRdBursts::9               8173                       # Per bank write bursts
system.mem_ctrl.perBankRdBursts::10              7899                       # Per bank write bursts
system.mem_ctrl.perBankRdBursts::11              8152                       # Per bank write bursts
system.mem_ctrl.perBankRdBursts::12              8101                       # Per bank write bursts
system.mem_ctrl.perBankRdBursts::13              8148                       # Per bank write bursts
system.mem_ctrl.perBankRdBursts::14              8168                       # Per bank write bursts
system.mem_ctrl.perBankRdBursts::15              8231                       # Per bank write bursts
system.mem_ctrl.perBankWrBursts::0              17072                       # Per bank write bursts
system.mem_ctrl.perBankWrBursts::1               8384                       # Per bank write bursts
system.mem_ctrl.perBankWrBursts::2              11681                       # Per bank write bursts
system.mem_ctrl.perBankWrBursts::3               8158                       # Per bank write bursts
system.mem_ctrl.perBankWrBursts::4               8163                       # Per bank write bursts
system.mem_ctrl.perBankWrBursts::5               8051                       # Per bank write bursts
system.mem_ctrl.perBankWrBursts::6               8054                       # Per bank write bursts
system.mem_ctrl.perBankWrBursts::7               7950                       # Per bank write bursts
system.mem_ctrl.perBankWrBursts::8               8004                       # Per bank write bursts
system.mem_ctrl.perBankWrBursts::9               8274                       # Per bank write bursts
system.mem_ctrl.perBankWrBursts::10              8003                       # Per bank write bursts
system.mem_ctrl.perBankWrBursts::11              8257                       # Per bank write bursts
system.mem_ctrl.perBankWrBursts::12              8208                       # Per bank write bursts
system.mem_ctrl.perBankWrBursts::13              8257                       # Per bank write bursts
system.mem_ctrl.perBankWrBursts::14              8270                       # Per bank write bursts
system.mem_ctrl.perBankWrBursts::15              8344                       # Per bank write bursts
system.mem_ctrl.numRdRetry                          0                       # Number of times read queue was full causing retry
system.mem_ctrl.numWrRetry                          0                       # Number of times write queue was full causing retry
system.mem_ctrl.totGap                   830254453000                       # Total gap between requests
system.mem_ctrl.readPktSize::0                      0                       # Read request sizes (log2)
system.mem_ctrl.readPktSize::1                      0                       # Read request sizes (log2)
system.mem_ctrl.readPktSize::2                      0                       # Read request sizes (log2)
system.mem_ctrl.readPktSize::3                      0                       # Read request sizes (log2)
system.mem_ctrl.readPktSize::4                      0                       # Read request sizes (log2)
system.mem_ctrl.readPktSize::5                      0                       # Read request sizes (log2)
system.mem_ctrl.readPktSize::6               32800406                       # Read request sizes (log2)
system.mem_ctrl.writePktSize::0                     0                       # Write request sizes (log2)
system.mem_ctrl.writePktSize::1                     0                       # Write request sizes (log2)
system.mem_ctrl.writePktSize::2                     0                       # Write request sizes (log2)
system.mem_ctrl.writePktSize::3                     0                       # Write request sizes (log2)
system.mem_ctrl.writePktSize::4                     0                       # Write request sizes (log2)
system.mem_ctrl.writePktSize::5                     0                       # Write request sizes (log2)
system.mem_ctrl.writePktSize::6              32799894                       # Write request sizes (log2)
system.mem_ctrl.rdQLenPdf::0                   135175                       # What read queue length does an incoming req see
system.mem_ctrl.rdQLenPdf::1                        0                       # What read queue length does an incoming req see
system.mem_ctrl.rdQLenPdf::2                        0                       # What read queue length does an incoming req see
system.mem_ctrl.rdQLenPdf::3                        0                       # What read queue length does an incoming req see
system.mem_ctrl.rdQLenPdf::4                        0                       # What read queue length does an incoming req see
system.mem_ctrl.rdQLenPdf::5                        0                       # What read queue length does an incoming req see
system.mem_ctrl.rdQLenPdf::6                        0                       # What read queue length does an incoming req see
system.mem_ctrl.rdQLenPdf::7                        0                       # What read queue length does an incoming req see
system.mem_ctrl.rdQLenPdf::8                        0                       # What read queue length does an incoming req see
system.mem_ctrl.rdQLenPdf::9                        0                       # What read queue length does an incoming req see
system.mem_ctrl.rdQLenPdf::10                       0                       # What read queue length does an incoming req see
system.mem_ctrl.rdQLenPdf::11                       0                       # What read queue length does an incoming req see
system.mem_ctrl.rdQLenPdf::12                       0                       # What read queue length does an incoming req see
system.mem_ctrl.rdQLenPdf::13                       0                       # What read queue length does an incoming req see
system.mem_ctrl.rdQLenPdf::14                       0                       # What read queue length does an incoming req see
system.mem_ctrl.rdQLenPdf::15                       0                       # What read queue length does an incoming req see
system.mem_ctrl.rdQLenPdf::16                       0                       # What read queue length does an incoming req see
system.mem_ctrl.rdQLenPdf::17                       0                       # What read queue length does an incoming req see
system.mem_ctrl.rdQLenPdf::18                       0                       # What read queue length does an incoming req see
system.mem_ctrl.rdQLenPdf::19                       0                       # What read queue length does an incoming req see
system.mem_ctrl.rdQLenPdf::20                       0                       # What read queue length does an incoming req see
system.mem_ctrl.rdQLenPdf::21                       0                       # What read queue length does an incoming req see
system.mem_ctrl.rdQLenPdf::22                       0                       # What read queue length does an incoming req see
system.mem_ctrl.rdQLenPdf::23                       0                       # What read queue length does an incoming req see
system.mem_ctrl.rdQLenPdf::24                       0                       # What read queue length does an incoming req see
system.mem_ctrl.rdQLenPdf::25                       0                       # What read queue length does an incoming req see
system.mem_ctrl.rdQLenPdf::26                       0                       # What read queue length does an incoming req see
system.mem_ctrl.rdQLenPdf::27                       0                       # What read queue length does an incoming req see
system.mem_ctrl.rdQLenPdf::28                       0                       # What read queue length does an incoming req see
system.mem_ctrl.rdQLenPdf::29                       0                       # What read queue length does an incoming req see
system.mem_ctrl.rdQLenPdf::30                       0                       # What read queue length does an incoming req see
system.mem_ctrl.rdQLenPdf::31                       0                       # What read queue length does an incoming req see
system.mem_ctrl.wrQLenPdf::0                        1                       # What write queue length does an incoming req see
system.mem_ctrl.wrQLenPdf::1                        1                       # What write queue length does an incoming req see
system.mem_ctrl.wrQLenPdf::2                        1                       # What write queue length does an incoming req see
system.mem_ctrl.wrQLenPdf::3                        1                       # What write queue length does an incoming req see
system.mem_ctrl.wrQLenPdf::4                        1                       # What write queue length does an incoming req see
system.mem_ctrl.wrQLenPdf::5                        1                       # What write queue length does an incoming req see
system.mem_ctrl.wrQLenPdf::6                        1                       # What write queue length does an incoming req see
system.mem_ctrl.wrQLenPdf::7                        1                       # What write queue length does an incoming req see
system.mem_ctrl.wrQLenPdf::8                        1                       # What write queue length does an incoming req see
system.mem_ctrl.wrQLenPdf::9                        1                       # What write queue length does an incoming req see
system.mem_ctrl.wrQLenPdf::10                       1                       # What write queue length does an incoming req see
system.mem_ctrl.wrQLenPdf::11                       1                       # What write queue length does an incoming req see
system.mem_ctrl.wrQLenPdf::12                       1                       # What write queue length does an incoming req see
system.mem_ctrl.wrQLenPdf::13                       1                       # What write queue length does an incoming req see
system.mem_ctrl.wrQLenPdf::14                       1                       # What write queue length does an incoming req see
system.mem_ctrl.wrQLenPdf::15                    6095                       # What write queue length does an incoming req see
system.mem_ctrl.wrQLenPdf::16                    6860                       # What write queue length does an incoming req see
system.mem_ctrl.wrQLenPdf::17                    8015                       # What write queue length does an incoming req see
system.mem_ctrl.wrQLenPdf::18                    9681                       # What write queue length does an incoming req see
system.mem_ctrl.wrQLenPdf::19                    8129                       # What write queue length does an incoming req see
system.mem_ctrl.wrQLenPdf::20                    8069                       # What write queue length does an incoming req see
system.mem_ctrl.wrQLenPdf::21                    8040                       # What write queue length does an incoming req see
system.mem_ctrl.wrQLenPdf::22                    8032                       # What write queue length does an incoming req see
system.mem_ctrl.wrQLenPdf::23                    8079                       # What write queue length does an incoming req see
system.mem_ctrl.wrQLenPdf::24                    8020                       # What write queue length does an incoming req see
system.mem_ctrl.wrQLenPdf::25                    8020                       # What write queue length does an incoming req see
system.mem_ctrl.wrQLenPdf::26                    8015                       # What write queue length does an incoming req see
system.mem_ctrl.wrQLenPdf::27                    8015                       # What write queue length does an incoming req see
system.mem_ctrl.wrQLenPdf::28                    8013                       # What write queue length does an incoming req see
system.mem_ctrl.wrQLenPdf::29                    8019                       # What write queue length does an incoming req see
system.mem_ctrl.wrQLenPdf::30                    8013                       # What write queue length does an incoming req see
system.mem_ctrl.wrQLenPdf::31                    8014                       # What write queue length does an incoming req see
system.mem_ctrl.wrQLenPdf::32                    8013                       # What write queue length does an incoming req see
system.mem_ctrl.wrQLenPdf::33                       0                       # What write queue length does an incoming req see
system.mem_ctrl.wrQLenPdf::34                       0                       # What write queue length does an incoming req see
system.mem_ctrl.wrQLenPdf::35                       0                       # What write queue length does an incoming req see
system.mem_ctrl.wrQLenPdf::36                       0                       # What write queue length does an incoming req see
system.mem_ctrl.wrQLenPdf::37                       0                       # What write queue length does an incoming req see
system.mem_ctrl.wrQLenPdf::38                       0                       # What write queue length does an incoming req see
system.mem_ctrl.wrQLenPdf::39                       0                       # What write queue length does an incoming req see
system.mem_ctrl.wrQLenPdf::40                       0                       # What write queue length does an incoming req see
system.mem_ctrl.wrQLenPdf::41                       0                       # What write queue length does an incoming req see
system.mem_ctrl.wrQLenPdf::42                       0                       # What write queue length does an incoming req see
system.mem_ctrl.wrQLenPdf::43                       0                       # What write queue length does an incoming req see
system.mem_ctrl.wrQLenPdf::44                       0                       # What write queue length does an incoming req see
system.mem_ctrl.wrQLenPdf::45                       0                       # What write queue length does an incoming req see
system.mem_ctrl.wrQLenPdf::46                       0                       # What write queue length does an incoming req see
system.mem_ctrl.wrQLenPdf::47                       0                       # What write queue length does an incoming req see
system.mem_ctrl.wrQLenPdf::48                       0                       # What write queue length does an incoming req see
system.mem_ctrl.wrQLenPdf::49                       0                       # What write queue length does an incoming req see
system.mem_ctrl.wrQLenPdf::50                       0                       # What write queue length does an incoming req see
system.mem_ctrl.wrQLenPdf::51                       0                       # What write queue length does an incoming req see
system.mem_ctrl.wrQLenPdf::52                       0                       # What write queue length does an incoming req see
system.mem_ctrl.wrQLenPdf::53                       0                       # What write queue length does an incoming req see
system.mem_ctrl.wrQLenPdf::54                       0                       # What write queue length does an incoming req see
system.mem_ctrl.wrQLenPdf::55                       0                       # What write queue length does an incoming req see
system.mem_ctrl.wrQLenPdf::56                       0                       # What write queue length does an incoming req see
system.mem_ctrl.wrQLenPdf::57                       0                       # What write queue length does an incoming req see
system.mem_ctrl.wrQLenPdf::58                       0                       # What write queue length does an incoming req see
system.mem_ctrl.wrQLenPdf::59                       0                       # What write queue length does an incoming req see
system.mem_ctrl.wrQLenPdf::60                       0                       # What write queue length does an incoming req see
system.mem_ctrl.wrQLenPdf::61                       0                       # What write queue length does an incoming req see
system.mem_ctrl.wrQLenPdf::62                       0                       # What write queue length does an incoming req see
system.mem_ctrl.wrQLenPdf::63                       0                       # What write queue length does an incoming req see
system.mem_ctrl.bytesPerActivate::samples       117573                       # Bytes accessed per row activation
system.mem_ctrl.bytesPerActivate::mean     151.477499                       # Bytes accessed per row activation
system.mem_ctrl.bytesPerActivate::gmean     96.193823                       # Bytes accessed per row activation
system.mem_ctrl.bytesPerActivate::stdev    233.411520                       # Bytes accessed per row activation
system.mem_ctrl.bytesPerActivate::0-127         78861     67.07%     67.07% # Bytes accessed per row activation
system.mem_ctrl.bytesPerActivate::128-255        26988     22.95%     90.03% # Bytes accessed per row activation
system.mem_ctrl.bytesPerActivate::256-383         3064      2.61%     92.63% # Bytes accessed per row activation
system.mem_ctrl.bytesPerActivate::384-511          414      0.35%     92.99% # Bytes accessed per row activation
system.mem_ctrl.bytesPerActivate::512-639          324      0.28%     93.26% # Bytes accessed per row activation
system.mem_ctrl.bytesPerActivate::640-767          300      0.26%     93.52% # Bytes accessed per row activation
system.mem_ctrl.bytesPerActivate::768-895          375      0.32%     93.84% # Bytes accessed per row activation
system.mem_ctrl.bytesPerActivate::896-1023          780      0.66%     94.50% # Bytes accessed per row activation
system.mem_ctrl.bytesPerActivate::1024-1151         6467      5.50%    100.00% # Bytes accessed per row activation
system.mem_ctrl.bytesPerActivate::total        117573                       # Bytes accessed per row activation
system.mem_ctrl.rdPerTurnAround::samples         8013                       # Reads before turning the bus around for writes
system.mem_ctrl.rdPerTurnAround::mean       16.868464                       # Reads before turning the bus around for writes
system.mem_ctrl.rdPerTurnAround::gmean      16.771009                       # Reads before turning the bus around for writes
system.mem_ctrl.rdPerTurnAround::stdev       6.007768                       # Reads before turning the bus around for writes
system.mem_ctrl.rdPerTurnAround::0-31            8012     99.99%     99.99% # Reads before turning the bus around for writes
system.mem_ctrl.rdPerTurnAround::544-575            1      0.01%    100.00% # Reads before turning the bus around for writes
system.mem_ctrl.rdPerTurnAround::total           8013                       # Reads before turning the bus around for writes
system.mem_ctrl.wrPerTurnAround::samples         8013                       # Writes before turning the bus around for reads
system.mem_ctrl.wrPerTurnAround::mean       17.862224                       # Writes before turning the bus around for reads
system.mem_ctrl.wrPerTurnAround::gmean      17.848259                       # Writes before turning the bus around for reads
system.mem_ctrl.wrPerTurnAround::stdev       0.699645                       # Writes before turning the bus around for reads
system.mem_ctrl.wrPerTurnAround::16               422      5.27%      5.27% # Writes before turning the bus around for reads
system.mem_ctrl.wrPerTurnAround::17              1279     15.96%     21.23% # Writes before turning the bus around for reads
system.mem_ctrl.wrPerTurnAround::18              5333     66.55%     87.78% # Writes before turning the bus around for reads
system.mem_ctrl.wrPerTurnAround::19               943     11.77%     99.55% # Writes before turning the bus around for reads
system.mem_ctrl.wrPerTurnAround::20                32      0.40%     99.95% # Writes before turning the bus around for reads
system.mem_ctrl.wrPerTurnAround::21                 4      0.05%    100.00% # Writes before turning the bus around for reads
system.mem_ctrl.wrPerTurnAround::total           8013                       # Writes before turning the bus around for reads
system.mem_ctrl.totQLat                    6176997000                       # Total ticks spent queuing
system.mem_ctrl.totMemAccLat               8711528250                       # Total ticks spent from burst creation until serviced by the DRAM
system.mem_ctrl.totBusLat                   675875000                       # Total ticks spent in databus transfers
system.mem_ctrl.avgQLat                      45696.30                       # Average queueing delay per DRAM burst
system.mem_ctrl.avgBusLat                     5000.00                       # Average bus latency per DRAM burst
system.mem_ctrl.avgMemAccLat                 64446.30                       # Average memory access latency per DRAM burst
system.mem_ctrl.avgRdBW                         10.42                       # Average DRAM read bandwidth in MiByte/s
system.mem_ctrl.avgWrBW                         11.03                       # Average achieved write bandwidth in MiByte/s
system.mem_ctrl.avgRdBWSys                    2528.41                       # Average system read bandwidth in MiByte/s
system.mem_ctrl.avgWrBWSys                    2528.37                       # Average system write bandwidth in MiByte/s
system.mem_ctrl.peakBW                       12800.00                       # Theoretical peak bandwidth in MiByte/s
system.mem_ctrl.busUtil                          0.17                       # Data bus utilization in percentage
system.mem_ctrl.busUtilRead                      0.08                       # Data bus utilization in percentage for reads
system.mem_ctrl.busUtilWrite                     0.09                       # Data bus utilization in percentage for writes
system.mem_ctrl.avgRdQLen                        1.00                       # Average read queue length when enqueuing
system.mem_ctrl.avgWrQLen                       24.80                       # Average write queue length when enqueuing
system.mem_ctrl.readRowHits                     31732                       # Number of row buffer hits during reads
system.mem_ctrl.writeRowHits                   128993                       # Number of row buffer hits during writes
system.mem_ctrl.readRowHitRate                  23.47                       # Row buffer hit rate for reads
system.mem_ctrl.writeRowHitRate                 90.11                       # Row buffer hit rate for writes
system.mem_ctrl.avgGap                       12656.26                       # Average gap between requests
system.mem_ctrl.pageHitRate                     57.75                       # Row buffer hit rate, read and write combined
system.mem_ctrl_0.actEnergy                 439402740                       # Energy for activate commands per rank (pJ)
system.mem_ctrl_0.preEnergy                 233536710                       # Energy for precharge commands per rank (pJ)
system.mem_ctrl_0.readEnergy                502634580                       # Energy for read commands per rank (pJ)
system.mem_ctrl_0.writeEnergy               404617860                       # Energy for write commands per rank (pJ)
system.mem_ctrl_0.refreshEnergy          38550220800.000008                       # Energy for refresh commands per rank (pJ)
system.mem_ctrl_0.actBackEnergy           10226975910                       # Energy for active background per rank (pJ)
system.mem_ctrl_0.preBackEnergy            1301894400                       # Energy for precharge background per rank (pJ)
system.mem_ctrl_0.actPowerDownEnergy     101675413260                       # Energy for active power-down per rank (pJ)
system.mem_ctrl_0.prePowerDownEnergy      74902951680                       # Energy for precharge power-down per rank (pJ)
system.mem_ctrl_0.selfRefreshEnergy       96157119765                       # Energy for self refresh per rank (pJ)
system.mem_ctrl_0.totalEnergy            324457899975                       # Total energy per rank (pJ)
system.mem_ctrl_0.averagePower             390.793324                       # Core power per rank (mW)
system.mem_ctrl_0.totalIdleTime          804294488250                       # Total Idle time Per DRAM Rank
system.mem_ctrl_0.memoryStateTime::IDLE    1937155000                       # Time in different power states
system.mem_ctrl_0.memoryStateTime::REF    16344700000                       # Time in different power states
system.mem_ctrl_0.memoryStateTime::SREF  386262800000                       # Time in different power states
system.mem_ctrl_0.memoryStateTime::PRE_PDN 195059587250                       # Time in different power states
system.mem_ctrl_0.memoryStateTime::ACT     7677930250                       # Time in different power states
system.mem_ctrl_0.memoryStateTime::ACT_PDN 222972284500                       # Time in different power states
system.mem_ctrl_1.actEnergy                 400118460                       # Energy for activate commands per rank (pJ)
system.mem_ctrl_1.preEnergy                 212652825                       # Energy for precharge commands per rank (pJ)
system.mem_ctrl_1.readEnergy                462514920                       # Energy for read commands per rank (pJ)
system.mem_ctrl_1.writeEnergy               342520740                       # Energy for write commands per rank (pJ)
system.mem_ctrl_1.refreshEnergy          39820067040.000008                       # Energy for refresh commands per rank (pJ)
system.mem_ctrl_1.actBackEnergy           12683697000                       # Energy for active background per rank (pJ)
system.mem_ctrl_1.preBackEnergy            1375981440                       # Energy for precharge background per rank (pJ)
system.mem_ctrl_1.actPowerDownEnergy     100691016990                       # Energy for active power-down per rank (pJ)
system.mem_ctrl_1.prePowerDownEnergy      77319355200                       # Energy for precharge power-down per rank (pJ)
system.mem_ctrl_1.selfRefreshEnergy       94323090555                       # Energy for self refresh per rank (pJ)
system.mem_ctrl_1.totalEnergy            327746270550                       # Total energy per rank (pJ)
system.mem_ctrl_1.averagePower             394.754003                       # Core power per rank (mW)
system.mem_ctrl_1.totalIdleTime          798601269250                       # Total Idle time Per DRAM Rank
system.mem_ctrl_1.memoryStateTime::IDLE    2172798000                       # Time in different power states
system.mem_ctrl_1.memoryStateTime::REF    16886360000                       # Time in different power states
system.mem_ctrl_1.memoryStateTime::SREF  376432505250                       # Time in different power states
system.mem_ctrl_1.memoryStateTime::PRE_PDN 201353616000                       # Time in different power states
system.mem_ctrl_1.memoryStateTime::ACT    12593597500                       # Time in different power states
system.mem_ctrl_1.memoryStateTime::ACT_PDN 220815580250                       # Time in different power states
system.pwrStateResidencyTicks::UNDEFINED 830254457000                       # Cumulative time (in ticks) in various power states
system.cache.pwrStateResidencyTicks::UNDEFINED 830254457000                       # Cumulative time (in ticks) in various power states
system.cache.hits                            25212783                       # Number of hits
system.cache.misses                          32800406                       # Number of misses
system.cache.missLatency::samples            32800406                       # Ticks for misses to the cache
system.cache.missLatency::mean           23543.649673                       # Ticks for misses to the cache
system.cache.missLatency::gmean          23315.611989                       # Ticks for misses to the cache
system.cache.missLatency::stdev           8449.972073                       # Ticks for misses to the cache
system.cache.missLatency::0-65535            32694521     99.68%     99.68% # Ticks for misses to the cache
system.cache.missLatency::65536-131071          94064      0.29%     99.96% # Ticks for misses to the cache
system.cache.missLatency::131072-196607          1761      0.01%     99.97% # Ticks for misses to the cache
system.cache.missLatency::196608-262143          3920      0.01%     99.98% # Ticks for misses to the cache
system.cache.missLatency::262144-327679           328      0.00%     99.98% # Ticks for misses to the cache
system.cache.missLatency::327680-393215           361      0.00%     99.98% # Ticks for misses to the cache
system.cache.missLatency::393216-458751             5      0.00%     99.98% # Ticks for misses to the cache
system.cache.missLatency::458752-524287           137      0.00%     99.98% # Ticks for misses to the cache
system.cache.missLatency::524288-589823           150      0.00%     99.98% # Ticks for misses to the cache
system.cache.missLatency::589824-655359          5156      0.02%    100.00% # Ticks for misses to the cache
system.cache.missLatency::655360-720895             3      0.00%    100.00% # Ticks for misses to the cache
system.cache.missLatency::720896-786431             0      0.00%    100.00% # Ticks for misses to the cache
system.cache.missLatency::786432-851967             0      0.00%    100.00% # Ticks for misses to the cache
system.cache.missLatency::851968-917503             0      0.00%    100.00% # Ticks for misses to the cache
system.cache.missLatency::917504-983039             0      0.00%    100.00% # Ticks for misses to the cache
system.cache.missLatency::983040-1.04858e+06            0      0.00%    100.00% # Ticks for misses to the cache
system.cache.missLatency::total              32800406                       # Ticks for misses to the cache
system.cache.hitRatio                        0.434604                       # The ratio of hits to the total accesses to the cache
system.cpu.dtb.fetch_hits                           0                       # ITB hits
system.cpu.dtb.fetch_misses                         0                       # ITB misses
system.cpu.dtb.fetch_acv                            0                       # ITB acv
system.cpu.dtb.fetch_accesses                       0                       # ITB accesses
system.cpu.dtb.read_hits                     10001315                       # DTB read hits
system.cpu.dtb.read_misses                        516                       # DTB read misses
system.cpu.dtb.read_acv                             0                       # DTB read access violations
system.cpu.dtb.read_accesses                 10001831                       # DTB read accesses
system.cpu.dtb.write_hits                     4001460                       # DTB write hits
system.cpu.dtb.write_misses                       915                       # DTB write misses
system.cpu.dtb.write_acv                            0                       # DTB write access violations
system.cpu.dtb.write_accesses                 4002375                       # DTB write accesses
system.cpu.dtb.data_hits                     14002775                       # DTB hits
system.cpu.dtb.data_misses                       1431                       # DTB misses
system.cpu.dtb.data_acv                             0                       # DTB access violations
system.cpu.dtb.data_accesses                 14004206                       # DTB accesses
system.cpu.itb.fetch_hits                    44010415                       # ITB hits
system.cpu.itb.fetch_misses                        19                       # ITB misses
system.cpu.itb.fetch_acv                            0                       # ITB acv
system.cpu.itb.fetch_accesses                44010434                       # ITB accesses
system.cpu.itb.read_hits                            0                       # DTB read hits
system.cpu.itb.read_misses                          0                       # DTB read misses
system.cpu.itb.read_acv                             0                       # DTB read access violations
system.cpu.itb.read_accesses                        0                       # DTB read accesses
system.cpu.itb.write_hits                           0                       # DTB write hits
system.cpu.itb.write_misses                         0                       # DTB write misses
system.cpu.itb.write_acv                            0                       # DTB write access violations
system.cpu.itb.write_accesses                       0                       # DTB write accesses
system.cpu.itb.data_hits                            0                       # DTB hits
system.cpu.itb.data_misses                          0                       # DTB misses
system.cpu.itb.data_acv                             0                       # DTB access violations
system.cpu.itb.data_accesses                        0                       # DTB accesses
system.cpu.workload.numSyscalls                    10                       # Number of system calls
system.cpu.pwrStateResidencyTicks::ON    830254457000                       # Cumulative time (in ticks) in various power states
system.cpu.numCycles                        830254457                       # number of cpu cycles simulated
system.cpu.numWorkItemsStarted                      0                       # number of work items this cpu started
system.cpu.numWorkItemsCompleted                    0                       # number of work items this cpu completed
system.cpu.committedInsts                    44008983                       # Number of instructions committed
system.cpu.committedOps                      44008983                       # Number of ops (including micro ops) committed
system.cpu.num_int_alu_accesses              42010330                       # Number of integer alu accesses
system.cpu.num_fp_alu_accesses                     16                       # Number of float alu accesses
system.cpu.num_vec_alu_accesses                     0                       # Number of vector alu accesses
system.cpu.num_func_calls                         231                       # number of times a function call or return occured
system.cpu.num_conditional_control_insts      2001276                       # number of instructions that are conditional controls
system.cpu.num_int_insts                     42010330                       # number of integer instructions
system.cpu.num_fp_insts                            16                       # number of float instructions
system.cpu.num_vec_insts                            0                       # number of vector instructions
system.cpu.num_int_register_reads            53014129                       # number of times the integer registers were read
system.cpu.num_int_register_writes           36006038                       # number of times the integer registers were written
system.cpu.num_fp_register_reads                   14                       # number of times the floating registers were read
system.cpu.num_fp_register_writes                   2                       # number of times the floating registers were written
system.cpu.num_vec_register_reads                   0                       # number of times the vector registers were read
system.cpu.num_vec_register_writes                  0                       # number of times the vector registers were written
system.cpu.num_mem_refs                      14004206                       # number of memory refs
system.cpu.num_load_insts                    10001831                       # Number of load instructions
system.cpu.num_store_insts                    4002375                       # Number of store instructions
system.cpu.num_idle_cycles                          0                       # Number of idle cycles
system.cpu.num_busy_cycles                  830254457                       # Number of busy cycles
system.cpu.not_idle_fraction                        1                       # Percentage of non-idle cycles
system.cpu.idle_fraction                            0                       # Percentage of idle cycles
system.cpu.Branches                           4001572                       # Number of branches fetched
system.cpu.op_class::No_OpClass                    22      0.00%      0.00% # Class of executed instruction
system.cpu.op_class::IntAlu                  30006176     68.18%     68.18% # Class of executed instruction
system.cpu.op_class::IntMult                        8      0.00%     68.18% # Class of executed instruction
system.cpu.op_class::IntDiv                         0      0.00%     68.18% # Class of executed instruction
system.cpu.op_class::FloatAdd                       2      0.00%     68.18% # Class of executed instruction
system.cpu.op_class::FloatCmp                       0      0.00%     68.18% # Class of executed instruction
system.cpu.op_class::FloatCvt                       0      0.00%     68.18% # Class of executed instruction
system.cpu.op_class::FloatMult                      0      0.00%     68.18% # Class of executed instruction
system.cpu.op_class::FloatMultAcc                   0      0.00%     68.18% # Class of executed instruction
system.cpu.op_class::FloatDiv                       0      0.00%     68.18% # Class of executed instruction
system.cpu.op_class::FloatMisc                      0      0.00%     68.18% # Class of executed instruction
system.cpu.op_class::FloatSqrt                      0      0.00%     68.18% # Class of executed instruction
system.cpu.op_class::SimdAdd                        0      0.00%     68.18% # Class of executed instruction
system.cpu.op_class::SimdAddAcc                     0      0.00%     68.18% # Class of executed instruction
system.cpu.op_class::SimdAlu                        0      0.00%     68.18% # Class of executed instruction
system.cpu.op_class::SimdCmp                        0      0.00%     68.18% # Class of executed instruction
system.cpu.op_class::SimdCvt                        0      0.00%     68.18% # Class of executed instruction
system.cpu.op_class::SimdMisc                       0      0.00%     68.18% # Class of executed instruction
system.cpu.op_class::SimdMult                       0      0.00%     68.18% # Class of executed instruction
system.cpu.op_class::SimdMultAcc                    0      0.00%     68.18% # Class of executed instruction
system.cpu.op_class::SimdShift                      0      0.00%     68.18% # Class of executed instruction
system.cpu.op_class::SimdShiftAcc                   0      0.00%     68.18% # Class of executed instruction
system.cpu.op_class::SimdSqrt                       0      0.00%     68.18% # Class of executed instruction
system.cpu.op_class::SimdFloatAdd                   0      0.00%     68.18% # Class of executed instruction
system.cpu.op_class::SimdFloatAlu                   0      0.00%     68.18% # Class of executed instruction
system.cpu.op_class::SimdFloatCmp                   0      0.00%     68.18% # Class of executed instruction
system.cpu.op_class::SimdFloatCvt                   0      0.00%     68.18% # Class of executed instruction
system.cpu.op_class::SimdFloatDiv                   0      0.00%     68.18% # Class of executed instruction
system.cpu.op_class::SimdFloatMisc                  0      0.00%     68.18% # Class of executed instruction
system.cpu.op_class::SimdFloatMult                  0      0.00%     68.18% # Class of executed instruction
system.cpu.op_class::SimdFloatMultAcc               0      0.00%     68.18% # Class of executed instruction
system.cpu.op_class::SimdFloatSqrt                  0      0.00%     68.18% # Class of executed instruction
system.cpu.op_class::MemRead                 10001830     22.73%     90.91% # Class of executed instruction
system.cpu.op_class::MemWrite                 4002362      9.09%    100.00% # Class of executed instruction
system.cpu.op_class::FloatMemRead                   1      0.00%    100.00% # Class of executed instruction
system.cpu.op_class::FloatMemWrite                 13      0.00%    100.00% # Class of executed instruction
system.cpu.op_class::IprAccess                      0      0.00%    100.00% # Class of executed instruction
system.cpu.op_class::InstPrefetch                   0      0.00%    100.00% # Class of executed instruction
system.cpu.op_class::total                   44010414                       # Class of executed instruction
system.membus.snoop_filter.tot_requests             0                       # Total number of requests made to the snoop filter.
system.membus.snoop_filter.hit_single_requests            0                       # Number of requests hitting in the snoop filter with a single holder of the requested data.
system.membus.snoop_filter.hit_multi_requests            0                       # Number of requests hitting in the snoop filter with multiple (>1) holders of the requested data.
system.membus.snoop_filter.tot_snoops               0                       # Total number of snoops made to the snoop filter.
system.membus.snoop_filter.hit_single_snoops            0                       # Number of snoops hitting in the snoop filter with a single holder of the requested data.
system.membus.snoop_filter.hit_multi_snoops            0                       # Number of snoops hitting in the snoop filter with multiple (>1) holders of the requested data.
system.membus.pwrStateResidencyTicks::UNDEFINED 830254457000                       # Cumulative time (in ticks) in various power states
system.membus.trans_dist::ReadReq            32800406                       # Transaction distribution
system.membus.trans_dist::ReadResp           32800406                       # Transaction distribution
system.membus.trans_dist::WritebackDirty     32799894                       # Transaction distribution
system.membus.pkt_count_system.cache.mem_side::system.mem_ctrl.port     98400706                       # Packet count per connected master and slave (bytes)
system.membus.pkt_count::total               98400706                       # Packet count per connected master and slave (bytes)
system.membus.pkt_size_system.cache.mem_side::system.mem_ctrl.port   4198419200                       # Cumulative packet size per connected master and slave (bytes)
system.membus.pkt_size::total              4198419200                       # Cumulative packet size per connected master and slave (bytes)
system.membus.snoops                                0                       # Total snoops (count)
system.membus.snoopTraffic                          0                       # Total snoop traffic (bytes)
system.membus.snoop_fanout::samples          32800406                       # Request fanout histogram
system.membus.snoop_fanout::mean                    0                       # Request fanout histogram
system.membus.snoop_fanout::stdev                   0                       # Request fanout histogram
system.membus.snoop_fanout::underflows              0      0.00%      0.00% # Request fanout histogram
system.membus.snoop_fanout::0                32800406    100.00%    100.00% # Request fanout histogram
system.membus.snoop_fanout::overflows               0      0.00%    100.00% # Request fanout histogram
system.membus.snoop_fanout::min_value               0                       # Request fanout histogram
system.membus.snoop_fanout::max_value               0                       # Request fanout histogram
system.membus.snoop_fanout::total            32800406                       # Request fanout histogram
system.membus.reqLayer0.occupancy        196799876000                       # Layer occupancy (ticks)
system.membus.reqLayer0.utilization              23.7                       # Layer utilization (%)
system.membus.respLayer0.occupancy       164061068750                       # Layer occupancy (ticks)
system.membus.respLayer0.utilization             19.8                       # Layer utilization (%)

---------- End Simulation Statistics   ----------
