factorialSEQ

---------- Begin Simulation Statistics ----------
sim_seconds                                  0.000235                       # Number of seconds simulated
sim_ticks                                   234644000                       # Number of ticks simulated
final_tick                                  234644000                       # Number of ticks from beginning of simulation (restored from checkpoints and never reset)
sim_freq                                 1000000000000                       # Frequency of simulated ticks
host_inst_rate                                 361622                       # Simulator instruction rate (inst/s)
host_op_rate                                   361293                       # Simulator op (including micro ops) rate (op/s)
host_tick_rate                             8201181364                       # Simulator tick rate (ticks/s)
host_mem_usage                                8485368                       # Number of bytes of host memory used
host_seconds                                     0.03                       # Real time elapsed on the host
sim_insts                                       10329                       # Number of instructions simulated
sim_ops                                         10329                       # Number of ops (including micro ops) simulated



system.cache.pwrStateResidencyTicks::UNDEFINED    234644000                       # Cumulative time (in ticks) in various power states
system.cache.hits                                6460                       # Number of hits
system.cache.misses                              7105                       # Number of misses
system.cache.missLatency::samples                7105                       # Ticks for misses to the cache
system.cache.missLatency::mean           31115.974666                       # Ticks for misses to the cache
system.cache.missLatency::gmean          27771.314892                       # Ticks for misses to the cache
system.cache.missLatency::stdev          23794.352958                       # Ticks for misses to the cache
system.cache.missLatency::0-65535                6784     95.48%     95.48% # Ticks for misses to the cache
system.cache.missLatency::65536-131071            270      3.80%     99.28% # Ticks for misses to the cache
system.cache.missLatency::131072-196607            30      0.42%     99.70% # Ticks for misses to the cache
system.cache.missLatency::196608-262143             5      0.07%     99.77% # Ticks for misses to the cache
system.cache.missLatency::262144-327679             7      0.10%     99.87% # Ticks for misses to the cache
system.cache.missLatency::327680-393215             7      0.10%     99.97% # Ticks for misses to the cache
system.cache.missLatency::393216-458751             0      0.00%     99.97% # Ticks for misses to the cache
system.cache.missLatency::458752-524287             0      0.00%     99.97% # Ticks for misses to the cache
system.cache.missLatency::524288-589823             0      0.00%     99.97% # Ticks for misses to the cache
system.cache.missLatency::589824-655359             2      0.03%    100.00% # Ticks for misses to the cache
system.cache.missLatency::655360-720895             0      0.00%    100.00% # Ticks for misses to the cache
system.cache.missLatency::720896-786431             0      0.00%    100.00% # Ticks for misses to the cache
system.cache.missLatency::786432-851967             0      0.00%    100.00% # Ticks for misses to the cache
system.cache.missLatency::851968-917503             0      0.00%    100.00% # Ticks for misses to the cache
system.cache.missLatency::917504-983039             0      0.00%    100.00% # Ticks for misses to the cache
system.cache.missLatency::983040-1.04858e+06            0      0.00%    100.00% # Ticks for misses to the cache
system.cache.missLatency::total                  7105                       # Ticks for misses to the cache
system.cache.hitRatio                        0.476226                       # The ratio of hits to the total accesses to the cache
system.membus.pkt_count_system.cache.mem_side::system.mem_ctrl.port        21299                       # Packet count per connected master and slave (bytes)
system.membus.pkt_size_system.cache.mem_side::system.mem_ctrl.port       908416                       # Cumulative packet size per connected master and slave (bytes)
