factorialFIFO

---------- Begin Simulation Statistics ----------
sim_seconds                                  0.000249                       # Number of seconds simulated
sim_ticks                                   249333000                       # Number of ticks simulated
final_tick                                  249333000                       # Number of ticks from beginning of simulation (restored from checkpoints and never reset)
sim_freq                                 1000000000000                       # Frequency of simulated ticks
host_inst_rate                                 289222                       # Simulator instruction rate (inst/s)
host_op_rate                                   288996                       # Simulator op (including micro ops) rate (op/s)
host_tick_rate                             6971229659                       # Simulator tick rate (ticks/s)
host_mem_usage                                8485372                       # Number of bytes of host memory used
host_seconds                                     0.04                       # Real time elapsed on the host
sim_insts                                       10329                       # Number of instructions simulated
sim_ops                                         10329                       # Number of ops (including micro ops) simulated



system.cache.pwrStateResidencyTicks::UNDEFINED    249333000                       # Cumulative time (in ticks) in various power states
system.cache.hits                                5987                       # Number of hits
system.cache.misses                              7578                       # Number of misses
system.cache.missLatency::samples                7578                       # Ticks for misses to the cache
system.cache.missLatency::mean           31112.166799                       # Ticks for misses to the cache
system.cache.missLatency::gmean          27739.655859                       # Ticks for misses to the cache
system.cache.missLatency::stdev          24317.769652                       # Ticks for misses to the cache
system.cache.missLatency::0-65535                7261     95.82%     95.82% # Ticks for misses to the cache
system.cache.missLatency::65536-131071            255      3.37%     99.18% # Ticks for misses to the cache
system.cache.missLatency::131072-196607            35      0.46%     99.64% # Ticks for misses to the cache
system.cache.missLatency::196608-262143             9      0.12%     99.76% # Ticks for misses to the cache
system.cache.missLatency::262144-327679            10      0.13%     99.89% # Ticks for misses to the cache
system.cache.missLatency::327680-393215             5      0.07%     99.96% # Ticks for misses to the cache
system.cache.missLatency::393216-458751             1      0.01%     99.97% # Ticks for misses to the cache
system.cache.missLatency::458752-524287             0      0.00%     99.97% # Ticks for misses to the cache
system.cache.missLatency::524288-589823             0      0.00%     99.97% # Ticks for misses to the cache
system.cache.missLatency::589824-655359             2      0.03%    100.00% # Ticks for misses to the cache
system.cache.missLatency::655360-720895             0      0.00%    100.00% # Ticks for misses to the cache
system.cache.missLatency::720896-786431             0      0.00%    100.00% # Ticks for misses to the cache
system.cache.missLatency::786432-851967             0      0.00%    100.00% # Ticks for misses to the cache
system.cache.missLatency::851968-917503             0      0.00%    100.00% # Ticks for misses to the cache
system.cache.missLatency::917504-983039             0      0.00%    100.00% # Ticks for misses to the cache
system.cache.missLatency::983040-1.04858e+06            0      0.00%    100.00% # Ticks for misses to the cache
system.cache.missLatency::total                  7578                       # Ticks for misses to the cache
system.cache.hitRatio                        0.441356                       # The ratio of hits to the total accesses to the cache
system.membus.pkt_count_system.cache.mem_side::system.mem_ctrl.port        22718                       # Packet count per connected master and slave (bytes)
system.membus.pkt_size_system.cache.mem_side::system.mem_ctrl.port       968960                       # Cumulative packet size per connected master and slave (bytes)
