helloFIFO

---------- Begin Simulation Statistics ----------
sim_seconds                                  0.000156                       # Number of seconds simulated
sim_ticks                                   156376000                       # Number of ticks simulated
final_tick                                  156376000                       # Number of ticks from beginning of simulation (restored from checkpoints and never reset)
sim_freq                                 1000000000000                       # Frequency of simulated ticks
host_inst_rate                                 327530                       # Simulator instruction rate (inst/s)
host_op_rate                                   327165                       # Simulator op (including micro ops) rate (op/s)
host_tick_rate                             7919777159                       # Simulator tick rate (ticks/s)
host_mem_usage                                8484296                       # Number of bytes of host memory used
host_seconds                                     0.02                       # Real time elapsed on the host
sim_insts                                        6453                       # Number of instructions simulated
sim_ops                                          6453                       # Number of ops (including micro ops) simulated



system.cache.pwrStateResidencyTicks::UNDEFINED    156376000                       # Cumulative time (in ticks) in various power states
system.cache.hits                                3901                       # Number of hits
system.cache.misses                              4617                       # Number of misses
system.cache.missLatency::samples                4617                       # Ticks for misses to the cache
system.cache.missLatency::mean           32024.691358                       # Ticks for misses to the cache
system.cache.missLatency::gmean          28325.024441                       # Ticks for misses to the cache
system.cache.missLatency::stdev          25569.209716                       # Ticks for misses to the cache
system.cache.missLatency::0-65535                4392     95.13%     95.13% # Ticks for misses to the cache
system.cache.missLatency::65536-131071            189      4.09%     99.22% # Ticks for misses to the cache
system.cache.missLatency::131072-196607            20      0.43%     99.65% # Ticks for misses to the cache
system.cache.missLatency::196608-262143             7      0.15%     99.81% # Ticks for misses to the cache
system.cache.missLatency::262144-327679             5      0.11%     99.91% # Ticks for misses to the cache
system.cache.missLatency::327680-393215             1      0.02%     99.94% # Ticks for misses to the cache
system.cache.missLatency::393216-458751             1      0.02%     99.96% # Ticks for misses to the cache
system.cache.missLatency::458752-524287             0      0.00%     99.96% # Ticks for misses to the cache
system.cache.missLatency::524288-589823             0      0.00%     99.96% # Ticks for misses to the cache
system.cache.missLatency::589824-655359             2      0.04%    100.00% # Ticks for misses to the cache
system.cache.missLatency::655360-720895             0      0.00%    100.00% # Ticks for misses to the cache
system.cache.missLatency::720896-786431             0      0.00%    100.00% # Ticks for misses to the cache
system.cache.missLatency::786432-851967             0      0.00%    100.00% # Ticks for misses to the cache
system.cache.missLatency::851968-917503             0      0.00%    100.00% # Ticks for misses to the cache
system.cache.missLatency::917504-983039             0      0.00%    100.00% # Ticks for misses to the cache
system.cache.missLatency::983040-1.04858e+06            0      0.00%    100.00% # Ticks for misses to the cache
system.cache.missLatency::total                  4617                       # Ticks for misses to the cache
system.cache.hitRatio                        0.457971                       # The ratio of hits to the total accesses to the cache
system.membus.pkt_count_system.cache.mem_side::system.mem_ctrl.port        13835                       # Packet count per connected master and slave (bytes)
system.membus.pkt_size_system.cache.mem_side::system.mem_ctrl.port       589952                       # Cumulative packet size per connected master and slave (bytes)
