intTypesSEQ

---------- Begin Simulation Statistics ----------
sim_seconds                                  0.000348                       # Number of seconds simulated
sim_ticks                                   347861000                       # Number of ticks simulated
final_tick                                  347861000                       # Number of ticks from beginning of simulation (restored from checkpoints and never reset)
sim_freq                                 1000000000000                       # Frequency of simulated ticks
host_inst_rate                                 315899                       # Simulator instruction rate (inst/s)
host_op_rate                                   315672                       # Simulator op (including micro ops) rate (op/s)
host_tick_rate                             8635429337                       # Simulator tick rate (ticks/s)
host_mem_usage                                8485368                       # Number of bytes of host memory used
host_seconds                                     0.04                       # Real time elapsed on the host
sim_insts                                       12708                       # Number of instructions simulated
sim_ops                                         12708                       # Number of ops (including micro ops) simulated



system.cache.pwrStateResidencyTicks::UNDEFINED    347861000                       # Cumulative time (in ticks) in various power states
system.cache.hits                                7227                       # Number of hits
system.cache.misses                             10007                       # Number of misses
system.cache.missLatency::samples               10007                       # Ticks for misses to the cache
system.cache.missLatency::mean           33039.572299                       # Ticks for misses to the cache
system.cache.missLatency::gmean          29205.779484                       # Ticks for misses to the cache
system.cache.missLatency::stdev          23570.059489                       # Ticks for misses to the cache
system.cache.missLatency::0-32767                7852     78.47%     78.47% # Ticks for misses to the cache
system.cache.missLatency::32768-65535            1583     15.82%     94.28% # Ticks for misses to the cache
system.cache.missLatency::65536-98303             461      4.61%     98.89% # Ticks for misses to the cache
system.cache.missLatency::98304-131071             28      0.28%     99.17% # Ticks for misses to the cache
system.cache.missLatency::131072-163839            44      0.44%     99.61% # Ticks for misses to the cache
system.cache.missLatency::163840-196607             8      0.08%     99.69% # Ticks for misses to the cache
system.cache.missLatency::196608-229375             4      0.04%     99.73% # Ticks for misses to the cache
system.cache.missLatency::229376-262143             7      0.07%     99.80% # Ticks for misses to the cache
system.cache.missLatency::262144-294911             5      0.05%     99.85% # Ticks for misses to the cache
system.cache.missLatency::294912-327679             9      0.09%     99.94% # Ticks for misses to the cache
system.cache.missLatency::327680-360447             4      0.04%     99.98% # Ticks for misses to the cache
system.cache.missLatency::360448-393215             1      0.01%     99.99% # Ticks for misses to the cache
system.cache.missLatency::393216-425983             0      0.00%     99.99% # Ticks for misses to the cache
system.cache.missLatency::425984-458751             1      0.01%    100.00% # Ticks for misses to the cache
system.cache.missLatency::458752-491519             0      0.00%    100.00% # Ticks for misses to the cache
system.cache.missLatency::491520-524287             0      0.00%    100.00% # Ticks for misses to the cache
system.cache.missLatency::total                 10007                       # Ticks for misses to the cache
system.cache.hitRatio                        0.419345                       # The ratio of hits to the total accesses to the cache
system.membus.pkt_count_system.cache.mem_side::system.mem_ctrl.port        30005                       # Packet count per connected master and slave (bytes)
system.membus.pkt_size_system.cache.mem_side::system.mem_ctrl.port      1279872                       # Cumulative packet size per connected master and slave (bytes)
