processSpaceSEQ

---------- Begin Simulation Statistics ----------
sim_seconds                                  0.000316                       # Number of seconds simulated
sim_ticks                                   315960000                       # Number of ticks simulated
final_tick                                  315960000                       # Number of ticks from beginning of simulation (restored from checkpoints and never reset)
sim_freq                                 1000000000000                       # Frequency of simulated ticks
host_inst_rate                                 322969                       # Simulator instruction rate (inst/s)
host_op_rate                                   322778                       # Simulator op (including micro ops) rate (op/s)
host_tick_rate                             8502919885                       # Simulator tick rate (ticks/s)
host_mem_usage                                8484344                       # Number of bytes of host memory used
host_seconds                                     0.04                       # Real time elapsed on the host
sim_insts                                       11987                       # Number of instructions simulated
sim_ops                                         11987                       # Number of ops (including micro ops) simulated



system.cache.pwrStateResidencyTicks::UNDEFINED    315960000                       # Cumulative time (in ticks) in various power states
system.cache.hits                                6505                       # Number of hits
system.cache.misses                             10234                       # Number of misses
system.cache.missLatency::samples               10234                       # Ticks for misses to the cache
system.cache.missLatency::mean           29237.932382                       # Ticks for misses to the cache
system.cache.missLatency::gmean          26702.076025                       # Ticks for misses to the cache
system.cache.missLatency::stdev          21207.853530                       # Ticks for misses to the cache
system.cache.missLatency::0-65535                9909     96.82%     96.82% # Ticks for misses to the cache
system.cache.missLatency::65536-131071            277      2.71%     99.53% # Ticks for misses to the cache
system.cache.missLatency::131072-196607            25      0.24%     99.78% # Ticks for misses to the cache
system.cache.missLatency::196608-262143             6      0.06%     99.83% # Ticks for misses to the cache
system.cache.missLatency::262144-327679             8      0.08%     99.91% # Ticks for misses to the cache
system.cache.missLatency::327680-393215             6      0.06%     99.97% # Ticks for misses to the cache
system.cache.missLatency::393216-458751             0      0.00%     99.97% # Ticks for misses to the cache
system.cache.missLatency::458752-524287             0      0.00%     99.97% # Ticks for misses to the cache
system.cache.missLatency::524288-589823             0      0.00%     99.97% # Ticks for misses to the cache
system.cache.missLatency::589824-655359             3      0.03%    100.00% # Ticks for misses to the cache
system.cache.missLatency::655360-720895             0      0.00%    100.00% # Ticks for misses to the cache
system.cache.missLatency::720896-786431             0      0.00%    100.00% # Ticks for misses to the cache
system.cache.missLatency::786432-851967             0      0.00%    100.00% # Ticks for misses to the cache
system.cache.missLatency::851968-917503             0      0.00%    100.00% # Ticks for misses to the cache
system.cache.missLatency::917504-983039             0      0.00%    100.00% # Ticks for misses to the cache
system.cache.missLatency::983040-1.04858e+06            0      0.00%    100.00% # Ticks for misses to the cache
system.cache.missLatency::total                 10234                       # Ticks for misses to the cache
system.cache.hitRatio                        0.388613                       # The ratio of hits to the total accesses to the cache
system.membus.pkt_count_system.cache.mem_side::system.mem_ctrl.port        30686                       # Packet count per connected master and slave (bytes)
system.membus.pkt_size_system.cache.mem_side::system.mem_ctrl.port      1308928                       # Cumulative packet size per connected master and slave (bytes)
