ptrsStructFIFO

---------- Begin Simulation Statistics ----------
sim_seconds                                  0.000199                       # Number of seconds simulated
sim_ticks                                   199036000                       # Number of ticks simulated
final_tick                                  199036000                       # Number of ticks from beginning of simulation (restored from checkpoints and never reset)
sim_freq                                 1000000000000                       # Frequency of simulated ticks
host_inst_rate                                 181742                       # Simulator instruction rate (inst/s)
host_op_rate                                   181512                       # Simulator op (including micro ops) rate (op/s)
host_tick_rate                             4646248658                       # Simulator tick rate (ticks/s)
host_mem_usage                                8484348                       # Number of bytes of host memory used
host_seconds                                     0.04                       # Real time elapsed on the host
sim_insts                                        7764                       # Number of instructions simulated
sim_ops                                          7764                       # Number of ops (including micro ops) simulated



system.cache.pwrStateResidencyTicks::UNDEFINED    199036000                       # Cumulative time (in ticks) in various power states
system.cache.hits                                4200                       # Number of hits
system.cache.misses                              6138                       # Number of misses
system.cache.missLatency::samples                6138                       # Ticks for misses to the cache
system.cache.missLatency::mean           30742.587162                       # Ticks for misses to the cache
system.cache.missLatency::gmean          27449.443419                       # Ticks for misses to the cache
system.cache.missLatency::stdev          25175.574729                       # Ticks for misses to the cache
system.cache.missLatency::0-65535                5876     95.73%     95.73% # Ticks for misses to the cache
system.cache.missLatency::65536-131071            219      3.57%     99.30% # Ticks for misses to the cache
system.cache.missLatency::131072-196607            22      0.36%     99.66% # Ticks for misses to the cache
system.cache.missLatency::196608-262143             5      0.08%     99.74% # Ticks for misses to the cache
system.cache.missLatency::262144-327679             8      0.13%     99.87% # Ticks for misses to the cache
system.cache.missLatency::327680-393215             5      0.08%     99.95% # Ticks for misses to the cache
system.cache.missLatency::393216-458751             0      0.00%     99.95% # Ticks for misses to the cache
system.cache.missLatency::458752-524287             0      0.00%     99.95% # Ticks for misses to the cache
system.cache.missLatency::524288-589823             0      0.00%     99.95% # Ticks for misses to the cache
system.cache.missLatency::589824-655359             3      0.05%    100.00% # Ticks for misses to the cache
system.cache.missLatency::655360-720895             0      0.00%    100.00% # Ticks for misses to the cache
system.cache.missLatency::720896-786431             0      0.00%    100.00% # Ticks for misses to the cache
system.cache.missLatency::786432-851967             0      0.00%    100.00% # Ticks for misses to the cache
system.cache.missLatency::851968-917503             0      0.00%    100.00% # Ticks for misses to the cache
system.cache.missLatency::917504-983039             0      0.00%    100.00% # Ticks for misses to the cache
system.cache.missLatency::983040-1.04858e+06            0      0.00%    100.00% # Ticks for misses to the cache
system.cache.missLatency::total                  6138                       # Ticks for misses to the cache
system.cache.hitRatio                        0.406268                       # The ratio of hits to the total accesses to the cache
system.membus.pkt_count_system.cache.mem_side::system.mem_ctrl.port        18398                       # Packet count per connected master and slave (bytes)
system.membus.pkt_size_system.cache.mem_side::system.mem_ctrl.port       784640                       # Cumulative packet size per connected master and slave (bytes)
