ptrsStructSEQ

---------- Begin Simulation Statistics ----------
sim_seconds                                  0.000193                       # Number of seconds simulated
sim_ticks                                   193080000                       # Number of ticks simulated
final_tick                                  193080000                       # Number of ticks from beginning of simulation (restored from checkpoints and never reset)
sim_freq                                 1000000000000                       # Frequency of simulated ticks
host_inst_rate                                 333462                       # Simulator instruction rate (inst/s)
host_op_rate                                   333133                       # Simulator op (including micro ops) rate (op/s)
host_tick_rate                             8276748971                       # Simulator tick rate (ticks/s)
host_mem_usage                                8484344                       # Number of bytes of host memory used
host_seconds                                     0.02                       # Real time elapsed on the host
sim_insts                                        7764                       # Number of instructions simulated
sim_ops                                          7764                       # Number of ops (including micro ops) simulated



system.cache.pwrStateResidencyTicks::UNDEFINED    193080000                       # Cumulative time (in ticks) in various power states
system.cache.hits                                4352                       # Number of hits
system.cache.misses                              5986                       # Number of misses
system.cache.missLatency::samples                5986                       # Ticks for misses to the cache
system.cache.missLatency::mean           30528.232543                       # Ticks for misses to the cache
system.cache.missLatency::gmean          27463.017592                       # Ticks for misses to the cache
system.cache.missLatency::stdev          22465.515126                       # Ticks for misses to the cache
system.cache.missLatency::0-65535                5721     95.57%     95.57% # Ticks for misses to the cache
system.cache.missLatency::65536-131071            228      3.81%     99.38% # Ticks for misses to the cache
system.cache.missLatency::131072-196607            27      0.45%     99.83% # Ticks for misses to the cache
system.cache.missLatency::196608-262143             2      0.03%     99.87% # Ticks for misses to the cache
system.cache.missLatency::262144-327679             3      0.05%     99.92% # Ticks for misses to the cache
system.cache.missLatency::327680-393215             3      0.05%     99.97% # Ticks for misses to the cache
system.cache.missLatency::393216-458751             0      0.00%     99.97% # Ticks for misses to the cache
system.cache.missLatency::458752-524287             0      0.00%     99.97% # Ticks for misses to the cache
system.cache.missLatency::524288-589823             0      0.00%     99.97% # Ticks for misses to the cache
system.cache.missLatency::589824-655359             2      0.03%    100.00% # Ticks for misses to the cache
system.cache.missLatency::655360-720895             0      0.00%    100.00% # Ticks for misses to the cache
system.cache.missLatency::720896-786431             0      0.00%    100.00% # Ticks for misses to the cache
system.cache.missLatency::786432-851967             0      0.00%    100.00% # Ticks for misses to the cache
system.cache.missLatency::851968-917503             0      0.00%    100.00% # Ticks for misses to the cache
system.cache.missLatency::917504-983039             0      0.00%    100.00% # Ticks for misses to the cache
system.cache.missLatency::983040-1.04858e+06            0      0.00%    100.00% # Ticks for misses to the cache
system.cache.missLatency::total                  5986                       # Ticks for misses to the cache
system.cache.hitRatio                        0.420971                       # The ratio of hits to the total accesses to the cache
system.membus.pkt_count_system.cache.mem_side::system.mem_ctrl.port        17942                       # Packet count per connected master and slave (bytes)
system.membus.pkt_size_system.cache.mem_side::system.mem_ctrl.port       765184                       # Cumulative packet size per connected master and slave (bytes)
