ptrsStringsFIFO

---------- Begin Simulation Statistics ----------
sim_seconds                                  0.000219                       # Number of seconds simulated
sim_ticks                                   218732000                       # Number of ticks simulated
final_tick                                  218732000                       # Number of ticks from beginning of simulation (restored from checkpoints and never reset)
sim_freq                                 1000000000000                       # Frequency of simulated ticks
host_inst_rate                                 279257                       # Simulator instruction rate (inst/s)
host_op_rate                                   279053                       # Simulator op (including micro ops) rate (op/s)
host_tick_rate                             6957345972                       # Simulator tick rate (ticks/s)
host_mem_usage                                8484348                       # Number of bytes of host memory used
host_seconds                                     0.03                       # Real time elapsed on the host
sim_insts                                        8767                       # Number of instructions simulated
sim_ops                                          8767                       # Number of ops (including micro ops) simulated



system.cache.pwrStateResidencyTicks::UNDEFINED    218732000                       # Cumulative time (in ticks) in various power states
system.cache.hits                                5142                       # Number of hits
system.cache.misses                              6556                       # Number of misses
system.cache.missLatency::samples                6556                       # Ticks for misses to the cache
system.cache.missLatency::mean           31579.316656                       # Ticks for misses to the cache
system.cache.missLatency::gmean          28147.687204                       # Ticks for misses to the cache
system.cache.missLatency::stdev          22990.840730                       # Ticks for misses to the cache
system.cache.missLatency::0-65535                6217     94.83%     94.83% # Ticks for misses to the cache
system.cache.missLatency::65536-131071            290      4.42%     99.25% # Ticks for misses to the cache
system.cache.missLatency::131072-196607            32      0.49%     99.74% # Ticks for misses to the cache
system.cache.missLatency::196608-262143             5      0.08%     99.82% # Ticks for misses to the cache
system.cache.missLatency::262144-327679             9      0.14%     99.95% # Ticks for misses to the cache
system.cache.missLatency::327680-393215             2      0.03%     99.98% # Ticks for misses to the cache
system.cache.missLatency::393216-458751             0      0.00%     99.98% # Ticks for misses to the cache
system.cache.missLatency::458752-524287             0      0.00%     99.98% # Ticks for misses to the cache
system.cache.missLatency::524288-589823             1      0.02%    100.00% # Ticks for misses to the cache
system.cache.missLatency::589824-655359             0      0.00%    100.00% # Ticks for misses to the cache
system.cache.missLatency::655360-720895             0      0.00%    100.00% # Ticks for misses to the cache
system.cache.missLatency::720896-786431             0      0.00%    100.00% # Ticks for misses to the cache
system.cache.missLatency::786432-851967             0      0.00%    100.00% # Ticks for misses to the cache
system.cache.missLatency::851968-917503             0      0.00%    100.00% # Ticks for misses to the cache
system.cache.missLatency::917504-983039             0      0.00%    100.00% # Ticks for misses to the cache
system.cache.missLatency::983040-1.04858e+06            0      0.00%    100.00% # Ticks for misses to the cache
system.cache.missLatency::total                  6556                       # Ticks for misses to the cache
system.cache.hitRatio                        0.439562                       # The ratio of hits to the total accesses to the cache
system.membus.pkt_count_system.cache.mem_side::system.mem_ctrl.port        19652                       # Packet count per connected master and slave (bytes)
system.membus.pkt_size_system.cache.mem_side::system.mem_ctrl.port       838144                       # Cumulative packet size per connected master and slave (bytes)
