ptrsStringsLRU

---------- Begin Simulation Statistics ----------
sim_seconds                                  0.000222                       # Number of seconds simulated
sim_ticks                                   221571000                       # Number of ticks simulated
final_tick                                  221571000                       # Number of ticks from beginning of simulation (restored from checkpoints and never reset)
sim_freq                                 1000000000000                       # Frequency of simulated ticks
host_inst_rate                                 332575                       # Simulator instruction rate (inst/s)
host_op_rate                                   332285                       # Simulator op (including micro ops) rate (op/s)
host_tick_rate                             8391251657                       # Simulator tick rate (ticks/s)
host_mem_usage                                8484348                       # Number of bytes of host memory used
host_seconds                                     0.03                       # Real time elapsed on the host
sim_insts                                        8767                       # Number of instructions simulated
sim_ops                                          8767                       # Number of ops (including micro ops) simulated



system.cache.pwrStateResidencyTicks::UNDEFINED    221571000                       # Cumulative time (in ticks) in various power states
system.cache.hits                                5158                       # Number of hits
system.cache.misses                              6540                       # Number of misses
system.cache.missLatency::samples                6540                       # Ticks for misses to the cache
system.cache.missLatency::mean           32090.672783                       # Ticks for misses to the cache
system.cache.missLatency::gmean          28361.408415                       # Ticks for misses to the cache
system.cache.missLatency::stdev          25223.082467                       # Ticks for misses to the cache
system.cache.missLatency::0-65535                6215     95.03%     95.03% # Ticks for misses to the cache
system.cache.missLatency::65536-131071            268      4.10%     99.13% # Ticks for misses to the cache
system.cache.missLatency::131072-196607            33      0.50%     99.63% # Ticks for misses to the cache
system.cache.missLatency::196608-262143             7      0.11%     99.74% # Ticks for misses to the cache
system.cache.missLatency::262144-327679            11      0.17%     99.91% # Ticks for misses to the cache
system.cache.missLatency::327680-393215             4      0.06%     99.97% # Ticks for misses to the cache
system.cache.missLatency::393216-458751             0      0.00%     99.97% # Ticks for misses to the cache
system.cache.missLatency::458752-524287             0      0.00%     99.97% # Ticks for misses to the cache
system.cache.missLatency::524288-589823             0      0.00%     99.97% # Ticks for misses to the cache
system.cache.missLatency::589824-655359             2      0.03%    100.00% # Ticks for misses to the cache
system.cache.missLatency::655360-720895             0      0.00%    100.00% # Ticks for misses to the cache
system.cache.missLatency::720896-786431             0      0.00%    100.00% # Ticks for misses to the cache
system.cache.missLatency::786432-851967             0      0.00%    100.00% # Ticks for misses to the cache
system.cache.missLatency::851968-917503             0      0.00%    100.00% # Ticks for misses to the cache
system.cache.missLatency::917504-983039             0      0.00%    100.00% # Ticks for misses to the cache
system.cache.missLatency::983040-1.04858e+06            0      0.00%    100.00% # Ticks for misses to the cache
system.cache.missLatency::total                  6540                       # Ticks for misses to the cache
system.cache.hitRatio                        0.440930                       # The ratio of hits to the total accesses to the cache
system.membus.pkt_count_system.cache.mem_side::system.mem_ctrl.port        19604                       # Packet count per connected master and slave (bytes)
system.membus.pkt_size_system.cache.mem_side::system.mem_ctrl.port       836096                       # Cumulative packet size per connected master and slave (bytes)
