RANDqueens25

---------- Begin Simulation Statistics ----------
sim_seconds                                  0.014163                       # Number of seconds simulated
sim_ticks                                 14162533000                       # Number of ticks simulated
host_seconds                                     8.11                       # Real time elapsed on the host
sim_insts                                    12217933                       # Number of instructions simulated
sim_ops                                      24822555                       # Number of ops (including micro ops) simulated


 ----- L1 Data Cache

system.cpu.dcache.tags.replacements              1774                       # number of replacements
system.cpu.dcache.overall_hits::cpu.data      3134252                       # number of overall hits
system.cpu.dcache.overall_misses::cpu.data         2798                       # number of overall misses
system.cpu.dcache.overall_accesses::cpu.data      3137050                       # number of overall (read+write) accesses
system.cpu.dcache.overall_miss_rate::total     0.000892                       # miss rate for overall accesses

 ----- L1 Instruction Cache

system.cpu.icache.tags.replacements               581                       # number of replacements
system.cpu.icache.overall_hits::cpu.inst     15719376                       # number of overall hits
system.cpu.icache.overall_misses::cpu.inst         1069                       # number of overall misses
system.cpu.icache.overall_accesses::cpu.inst     15720445                       # number of overall (read+write) accesses
system.cpu.icache.overall_miss_rate::total     0.000068                       # miss rate for overall accesses

 ----- L2 Cache

system.l2.tags.replacements                         0                       # number of replacements
system.l2.overall_hits::total                     492                       # number of overall hits
system.l2.overall_misses::total                  3375                       # number of overall misses
system.l2.overall_accesses::total                3867                       # number of overall (read+write) accesses
system.l2.overall_miss_rate::total           0.872770                       # miss rate for overall accesses
