RANDqueens12

---------- Begin Simulation Statistics ----------
sim_seconds                                  0.000234                       # Number of seconds simulated
sim_ticks                                   233820000                       # Number of ticks simulated
host_seconds                                     0.22                       # Real time elapsed on the host
sim_insts                                      208020                       # Number of instructions simulated
sim_ops                                        402236                       # Number of ops (including micro ops) simulated


 ----- L1 Data Cache

system.cpu.dcache.tags.replacements              1768                       # number of replacements
system.cpu.dcache.overall_hits::cpu.data        71254                       # number of overall hits
system.cpu.dcache.overall_misses::cpu.data         2792                       # number of overall misses
system.cpu.dcache.overall_accesses::cpu.data        74046                       # number of overall (read+write) accesses
system.cpu.dcache.overall_miss_rate::total     0.037706                       # miss rate for overall accesses

 ----- L1 Instruction Cache

system.cpu.icache.tags.replacements               587                       # number of replacements
system.cpu.icache.overall_hits::cpu.inst       272350                       # number of overall hits
system.cpu.icache.overall_misses::cpu.inst         1075                       # number of overall misses
system.cpu.icache.overall_accesses::cpu.inst       273425                       # number of overall (read+write) accesses
system.cpu.icache.overall_miss_rate::total     0.003932                       # miss rate for overall accesses

 ----- L2 Cache

system.l2.tags.replacements                         0                       # number of replacements
system.l2.overall_hits::total                     494                       # number of overall hits
system.l2.overall_misses::total                  3373                       # number of overall misses
system.l2.overall_accesses::total                3867                       # number of overall (read+write) accesses
system.l2.overall_miss_rate::total           0.872252                       # miss rate for overall accesses
