
---------- Begin Simulation Statistics ----------
sim_seconds                                  0.066250                       # Number of seconds simulated
sim_ticks                                 66249668000                       # Number of ticks simulated
final_tick                                66249668000                       # Number of ticks from beginning of simulation (restored from checkpoints and never reset)
sim_freq                                 1000000000000                       # Frequency of simulated ticks
host_inst_rate                                1306583                       # Simulator instruction rate (inst/s)
host_op_rate                                  1306582                       # Simulator op (including micro ops) rate (op/s)
host_tick_rate                             1966883805                       # Simulator tick rate (ticks/s)
host_mem_usage                                8488444                       # Number of bytes of host memory used
host_seconds                                    33.68                       # Real time elapsed on the host
sim_insts                                    44008983                       # Number of instructions simulated
sim_ops                                      44008983                       # Number of ops (including micro ops) simulated
system.clk_domain.voltage_domain.voltage            1                       # Voltage in Volts
system.clk_domain.clock                          1000                       # Clock period in ticks
system.mem_ctrl.pwrStateResidencyTicks::UNDEFINED  66249668000                       # Cumulative time (in ticks) in various power states
system.mem_ctrl.bytes_read::cpu.inst            36416                       # Number of bytes read from this memory
system.mem_ctrl.bytes_read::cpu.data          8052288                       # Number of bytes read from this memory
system.mem_ctrl.bytes_read::total             8088704                       # Number of bytes read from this memory
system.mem_ctrl.bytes_inst_read::cpu.inst        36416                       # Number of instructions bytes read from this memory
system.mem_ctrl.bytes_inst_read::total          36416                       # Number of instructions bytes read from this memory
system.mem_ctrl.bytes_written::writebacks      8023168                       # Number of bytes written to this memory
system.mem_ctrl.bytes_written::total          8023168                       # Number of bytes written to this memory
system.mem_ctrl.num_reads::cpu.inst               569                       # Number of read requests responded to by this memory
system.mem_ctrl.num_reads::cpu.data            125817                       # Number of read requests responded to by this memory
system.mem_ctrl.num_reads::total               126386                       # Number of read requests responded to by this memory
system.mem_ctrl.num_writes::writebacks         125362                       # Number of write requests responded to by this memory
system.mem_ctrl.num_writes::total              125362                       # Number of write requests responded to by this memory
system.mem_ctrl.bw_read::cpu.inst              549678                       # Total read bandwidth from this memory (bytes/s)
system.mem_ctrl.bw_read::cpu.data           121544579                       # Total read bandwidth from this memory (bytes/s)
system.mem_ctrl.bw_read::total              122094257                       # Total read bandwidth from this memory (bytes/s)
system.mem_ctrl.bw_inst_read::cpu.inst         549678                       # Instruction read bandwidth from this memory (bytes/s)
system.mem_ctrl.bw_inst_read::total            549678                       # Instruction read bandwidth from this memory (bytes/s)
system.mem_ctrl.bw_write::writebacks        121105030                       # Write bandwidth from this memory (bytes/s)
system.mem_ctrl.bw_write::total             121105030                       # Write bandwidth from this memory (bytes/s)
system.mem_ctrl.bw_total::writebacks        121105030                       # Total bandwidth to/from this memory (bytes/s)
system.mem_ctrl.bw_total::cpu.inst             549678                       # Total bandwidth to/from this memory (bytes/s)
system.mem_ctrl.bw_total::cpu.data          121544579                       # Total bandwidth to/from this memory (bytes/s)
system.mem_ctrl.bw_total::total             243199287                       # Total bandwidth to/from this memory (bytes/s)
system.mem_ctrl.readReqs                       126386                       # Number of read requests accepted
system.mem_ctrl.writeReqs                      125362                       # Number of write requests accepted
system.mem_ctrl.readBursts                     126386                       # Number of DRAM read bursts, including those serviced by the write queue
system.mem_ctrl.writeBursts                    125362                       # Number of DRAM write bursts, including those merged in the write queue
system.mem_ctrl.bytesReadDRAM                 8066112                       # Total number of bytes read from DRAM
system.mem_ctrl.bytesReadWrQ                    22592                       # Total number of bytes read from write queue
system.mem_ctrl.bytesWritten                  8020416                       # Total number of bytes written to DRAM
system.mem_ctrl.bytesReadSys                  8088704                       # Total read bytes from the system interface side
system.mem_ctrl.bytesWrittenSys               8023168                       # Total written bytes from the system interface side
system.mem_ctrl.servicedByWrQ                     353                       # Number of DRAM read bursts serviced by the write queue
system.mem_ctrl.mergedWrBursts                     12                       # Number of DRAM write bursts merged with an existing one
system.mem_ctrl.neitherReadNorWriteReqs             0                       # Number of requests that are neither read nor write
system.mem_ctrl.perBankRdBursts::0               8037                       # Per bank write bursts
system.mem_ctrl.perBankRdBursts::1               7986                       # Per bank write bursts
system.mem_ctrl.perBankRdBursts::2               7924                       # Per bank write bursts
system.mem_ctrl.perBankRdBursts::3               7796                       # Per bank write bursts
system.mem_ctrl.perBankRdBursts::4               7781                       # Per bank write bursts
system.mem_ctrl.perBankRdBursts::5               7732                       # Per bank write bursts
system.mem_ctrl.perBankRdBursts::6               7744                       # Per bank write bursts
system.mem_ctrl.perBankRdBursts::7               7714                       # Per bank write bursts
system.mem_ctrl.perBankRdBursts::8               7713                       # Per bank write bursts
system.mem_ctrl.perBankRdBursts::9               7968                       # Per bank write bursts
system.mem_ctrl.perBankRdBursts::10              7715                       # Per bank write bursts
system.mem_ctrl.perBankRdBursts::11              7973                       # Per bank write bursts
system.mem_ctrl.perBankRdBursts::12              7969                       # Per bank write bursts
system.mem_ctrl.perBankRdBursts::13              7991                       # Per bank write bursts
system.mem_ctrl.perBankRdBursts::14              8008                       # Per bank write bursts
system.mem_ctrl.perBankRdBursts::15              7982                       # Per bank write bursts
system.mem_ctrl.perBankWrBursts::0               8209                       # Per bank write bursts
system.mem_ctrl.perBankWrBursts::1               7936                       # Per bank write bursts
system.mem_ctrl.perBankWrBursts::2               7891                       # Per bank write bursts
system.mem_ctrl.perBankWrBursts::3               7740                       # Per bank write bursts
system.mem_ctrl.perBankWrBursts::4               7740                       # Per bank write bursts
system.mem_ctrl.perBankWrBursts::5               7711                       # Per bank write bursts
system.mem_ctrl.perBankWrBursts::6               7691                       # Per bank write bursts
system.mem_ctrl.perBankWrBursts::7               7698                       # Per bank write bursts
system.mem_ctrl.perBankWrBursts::8               7695                       # Per bank write bursts
system.mem_ctrl.perBankWrBursts::9               7869                       # Per bank write bursts
system.mem_ctrl.perBankWrBursts::10              7702                       # Per bank write bursts
system.mem_ctrl.perBankWrBursts::11              7871                       # Per bank write bursts
system.mem_ctrl.perBankWrBursts::12              7876                       # Per bank write bursts
system.mem_ctrl.perBankWrBursts::13              7887                       # Per bank write bursts
system.mem_ctrl.perBankWrBursts::14              7894                       # Per bank write bursts
system.mem_ctrl.perBankWrBursts::15              7909                       # Per bank write bursts
system.mem_ctrl.numRdRetry                          0                       # Number of times read queue was full causing retry
system.mem_ctrl.numWrRetry                          0                       # Number of times write queue was full causing retry
system.mem_ctrl.totGap                    66249655000                       # Total gap between requests
system.mem_ctrl.readPktSize::0                      0                       # Read request sizes (log2)
system.mem_ctrl.readPktSize::1                      0                       # Read request sizes (log2)
system.mem_ctrl.readPktSize::2                      0                       # Read request sizes (log2)
system.mem_ctrl.readPktSize::3                      0                       # Read request sizes (log2)
system.mem_ctrl.readPktSize::4                      0                       # Read request sizes (log2)
system.mem_ctrl.readPktSize::5                      0                       # Read request sizes (log2)
system.mem_ctrl.readPktSize::6                 126386                       # Read request sizes (log2)
system.mem_ctrl.writePktSize::0                     0                       # Write request sizes (log2)
system.mem_ctrl.writePktSize::1                     0                       # Write request sizes (log2)
system.mem_ctrl.writePktSize::2                     0                       # Write request sizes (log2)
system.mem_ctrl.writePktSize::3                     0                       # Write request sizes (log2)
system.mem_ctrl.writePktSize::4                     0                       # Write request sizes (log2)
system.mem_ctrl.writePktSize::5                     0                       # Write request sizes (log2)
system.mem_ctrl.writePktSize::6                125362                       # Write request sizes (log2)
system.mem_ctrl.rdQLenPdf::0                   126033                       # What read queue length does an incoming req see
system.mem_ctrl.rdQLenPdf::1                        0                       # What read queue length does an incoming req see
system.mem_ctrl.rdQLenPdf::2                        0                       # What read queue length does an incoming req see
system.mem_ctrl.rdQLenPdf::3                        0                       # What read queue length does an incoming req see
system.mem_ctrl.rdQLenPdf::4                        0                       # What read queue length does an incoming req see
system.mem_ctrl.rdQLenPdf::5                        0                       # What read queue length does an incoming req see
system.mem_ctrl.rdQLenPdf::6                        0                       # What read queue length does an incoming req see
system.mem_ctrl.rdQLenPdf::7                        0                       # What read queue length does an incoming req see
system.mem_ctrl.rdQLenPdf::8                        0                       # What read queue length does an incoming req see
system.mem_ctrl.rdQLenPdf::9                        0                       # What read queue length does an incoming req see
system.mem_ctrl.rdQLenPdf::10                       0                       # What read queue length does an incoming req see
system.mem_ctrl.rdQLenPdf::11                       0                       # What read queue length does an incoming req see
system.mem_ctrl.rdQLenPdf::12                       0                       # What read queue length does an incoming req see
system.mem_ctrl.rdQLenPdf::13                       0                       # What read queue length does an incoming req see
system.mem_ctrl.rdQLenPdf::14                       0                       # What read queue length does an incoming req see
system.mem_ctrl.rdQLenPdf::15                       0                       # What read queue length does an incoming req see
system.mem_ctrl.rdQLenPdf::16                       0                       # What read queue length does an incoming req see
system.mem_ctrl.rdQLenPdf::17                       0                       # What read queue length does an incoming req see
system.mem_ctrl.rdQLenPdf::18                       0                       # What read queue length does an incoming req see
system.mem_ctrl.rdQLenPdf::19                       0                       # What read queue length does an incoming req see
system.mem_ctrl.rdQLenPdf::20                       0                       # What read queue length does an incoming req see
system.mem_ctrl.rdQLenPdf::21                       0                       # What read queue length does an incoming req see
system.mem_ctrl.rdQLenPdf::22                       0                       # What read queue length does an incoming req see
system.mem_ctrl.rdQLenPdf::23                       0                       # What read queue length does an incoming req see
system.mem_ctrl.rdQLenPdf::24                       0                       # What read queue length does an incoming req see
system.mem_ctrl.rdQLenPdf::25                       0                       # What read queue length does an incoming req see
system.mem_ctrl.rdQLenPdf::26                       0                       # What read queue length does an incoming req see
system.mem_ctrl.rdQLenPdf::27                       0                       # What read queue length does an incoming req see
system.mem_ctrl.rdQLenPdf::28                       0                       # What read queue length does an incoming req see
system.mem_ctrl.rdQLenPdf::29                       0                       # What read queue length does an incoming req see
system.mem_ctrl.rdQLenPdf::30                       0                       # What read queue length does an incoming req see
system.mem_ctrl.rdQLenPdf::31                       0                       # What read queue length does an incoming req see
system.mem_ctrl.wrQLenPdf::0                        1                       # What write queue length does an incoming req see
system.mem_ctrl.wrQLenPdf::1                        1                       # What write queue length does an incoming req see
system.mem_ctrl.wrQLenPdf::2                        1                       # What write queue length does an incoming req see
system.mem_ctrl.wrQLenPdf::3                        1                       # What write queue length does an incoming req see
system.mem_ctrl.wrQLenPdf::4                        1                       # What write queue length does an incoming req see
system.mem_ctrl.wrQLenPdf::5                        1                       # What write queue length does an incoming req see
system.mem_ctrl.wrQLenPdf::6                        1                       # What write queue length does an incoming req see
system.mem_ctrl.wrQLenPdf::7                        1                       # What write queue length does an incoming req see
system.mem_ctrl.wrQLenPdf::8                        1                       # What write queue length does an incoming req see
system.mem_ctrl.wrQLenPdf::9                        1                       # What write queue length does an incoming req see
system.mem_ctrl.wrQLenPdf::10                       1                       # What write queue length does an incoming req see
system.mem_ctrl.wrQLenPdf::11                       1                       # What write queue length does an incoming req see
system.mem_ctrl.wrQLenPdf::12                       1                       # What write queue length does an incoming req see
system.mem_ctrl.wrQLenPdf::13                       1                       # What write queue length does an incoming req see
system.mem_ctrl.wrQLenPdf::14                       1                       # What write queue length does an incoming req see
system.mem_ctrl.wrQLenPdf::15                    6807                       # What write queue length does an incoming req see
system.mem_ctrl.wrQLenPdf::16                    6824                       # What write queue length does an incoming req see
system.mem_ctrl.wrQLenPdf::17                    6980                       # What write queue length does an incoming req see
system.mem_ctrl.wrQLenPdf::18                    6980                       # What write queue length does an incoming req see
system.mem_ctrl.wrQLenPdf::19                    6980                       # What write queue length does an incoming req see
system.mem_ctrl.wrQLenPdf::20                    6980                       # What write queue length does an incoming req see
system.mem_ctrl.wrQLenPdf::21                    6980                       # What write queue length does an incoming req see
system.mem_ctrl.wrQLenPdf::22                    6983                       # What write queue length does an incoming req see
system.mem_ctrl.wrQLenPdf::23                    6984                       # What write queue length does an incoming req see
system.mem_ctrl.wrQLenPdf::24                    6984                       # What write queue length does an incoming req see
system.mem_ctrl.wrQLenPdf::25                    6985                       # What write queue length does an incoming req see
system.mem_ctrl.wrQLenPdf::26                    6988                       # What write queue length does an incoming req see
system.mem_ctrl.wrQLenPdf::27                    6980                       # What write queue length does an incoming req see
system.mem_ctrl.wrQLenPdf::28                    6980                       # What write queue length does an incoming req see
system.mem_ctrl.wrQLenPdf::29                    6981                       # What write queue length does an incoming req see
system.mem_ctrl.wrQLenPdf::30                    6980                       # What write queue length does an incoming req see
system.mem_ctrl.wrQLenPdf::31                    6979                       # What write queue length does an incoming req see
system.mem_ctrl.wrQLenPdf::32                    6979                       # What write queue length does an incoming req see
system.mem_ctrl.wrQLenPdf::33                       1                       # What write queue length does an incoming req see
system.mem_ctrl.wrQLenPdf::34                       0                       # What write queue length does an incoming req see
system.mem_ctrl.wrQLenPdf::35                       0                       # What write queue length does an incoming req see
system.mem_ctrl.wrQLenPdf::36                       0                       # What write queue length does an incoming req see
system.mem_ctrl.wrQLenPdf::37                       0                       # What write queue length does an incoming req see
system.mem_ctrl.wrQLenPdf::38                       0                       # What write queue length does an incoming req see
system.mem_ctrl.wrQLenPdf::39                       0                       # What write queue length does an incoming req see
system.mem_ctrl.wrQLenPdf::40                       0                       # What write queue length does an incoming req see
system.mem_ctrl.wrQLenPdf::41                       0                       # What write queue length does an incoming req see
system.mem_ctrl.wrQLenPdf::42                       0                       # What write queue length does an incoming req see
system.mem_ctrl.wrQLenPdf::43                       0                       # What write queue length does an incoming req see
system.mem_ctrl.wrQLenPdf::44                       0                       # What write queue length does an incoming req see
system.mem_ctrl.wrQLenPdf::45                       0                       # What write queue length does an incoming req see
system.mem_ctrl.wrQLenPdf::46                       0                       # What write queue length does an incoming req see
system.mem_ctrl.wrQLenPdf::47                       0                       # What write queue length does an incoming req see
system.mem_ctrl.wrQLenPdf::48                       0                       # What write queue length does an incoming req see
system.mem_ctrl.wrQLenPdf::49                       0                       # What write queue length does an incoming req see
system.mem_ctrl.wrQLenPdf::50                       0                       # What write queue length does an incoming req see
system.mem_ctrl.wrQLenPdf::51                       0                       # What write queue length does an incoming req see
system.mem_ctrl.wrQLenPdf::52                       0                       # What write queue length does an incoming req see
system.mem_ctrl.wrQLenPdf::53                       0                       # What write queue length does an incoming req see
system.mem_ctrl.wrQLenPdf::54                       0                       # What write queue length does an incoming req see
system.mem_ctrl.wrQLenPdf::55                       0                       # What write queue length does an incoming req see
system.mem_ctrl.wrQLenPdf::56                       0                       # What write queue length does an incoming req see
system.mem_ctrl.wrQLenPdf::57                       0                       # What write queue length does an incoming req see
system.mem_ctrl.wrQLenPdf::58                       0                       # What write queue length does an incoming req see
system.mem_ctrl.wrQLenPdf::59                       0                       # What write queue length does an incoming req see
system.mem_ctrl.wrQLenPdf::60                       0                       # What write queue length does an incoming req see
system.mem_ctrl.wrQLenPdf::61                       0                       # What write queue length does an incoming req see
system.mem_ctrl.wrQLenPdf::62                       0                       # What write queue length does an incoming req see
system.mem_ctrl.wrQLenPdf::63                       0                       # What write queue length does an incoming req see
system.mem_ctrl.bytesPerActivate::samples        65797                       # Bytes accessed per row activation
system.mem_ctrl.bytesPerActivate::mean     244.433758                       # Bytes accessed per row activation
system.mem_ctrl.bytesPerActivate::gmean    158.517720                       # Bytes accessed per row activation
system.mem_ctrl.bytesPerActivate::stdev    256.542198                       # Bytes accessed per row activation
system.mem_ctrl.bytesPerActivate::0-127         24946     37.91%     37.91% # Bytes accessed per row activation
system.mem_ctrl.bytesPerActivate::128-255        18685     28.40%     66.31% # Bytes accessed per row activation
system.mem_ctrl.bytesPerActivate::256-383         9153     13.91%     80.22% # Bytes accessed per row activation
system.mem_ctrl.bytesPerActivate::384-511         3496      5.31%     85.54% # Bytes accessed per row activation
system.mem_ctrl.bytesPerActivate::512-639         1405      2.14%     87.67% # Bytes accessed per row activation
system.mem_ctrl.bytesPerActivate::640-767         1720      2.61%     90.29% # Bytes accessed per row activation
system.mem_ctrl.bytesPerActivate::768-895         3171      4.82%     95.10% # Bytes accessed per row activation
system.mem_ctrl.bytesPerActivate::896-1023          751      1.14%     96.25% # Bytes accessed per row activation
system.mem_ctrl.bytesPerActivate::1024-1151         2470      3.75%    100.00% # Bytes accessed per row activation
system.mem_ctrl.bytesPerActivate::total         65797                       # Bytes accessed per row activation
system.mem_ctrl.rdPerTurnAround::samples         6979                       # Reads before turning the bus around for writes
system.mem_ctrl.rdPerTurnAround::mean       18.056885                       # Reads before turning the bus around for writes
system.mem_ctrl.rdPerTurnAround::gmean      17.914491                       # Reads before turning the bus around for writes
system.mem_ctrl.rdPerTurnAround::stdev      12.443569                       # Reads before turning the bus around for writes
system.mem_ctrl.rdPerTurnAround::0-63            6978     99.99%     99.99% # Reads before turning the bus around for writes
system.mem_ctrl.rdPerTurnAround::1024-1087            1      0.01%    100.00% # Reads before turning the bus around for writes
system.mem_ctrl.rdPerTurnAround::total           6979                       # Reads before turning the bus around for writes
system.mem_ctrl.wrPerTurnAround::samples         6979                       # Writes before turning the bus around for reads
system.mem_ctrl.wrPerTurnAround::mean       17.956584                       # Writes before turning the bus around for reads
system.mem_ctrl.wrPerTurnAround::gmean      17.953789                       # Writes before turning the bus around for reads
system.mem_ctrl.wrPerTurnAround::stdev       0.306106                       # Writes before turning the bus around for reads
system.mem_ctrl.wrPerTurnAround::16               156      2.24%      2.24% # Writes before turning the bus around for reads
system.mem_ctrl.wrPerTurnAround::17                17      0.24%      2.48% # Writes before turning the bus around for reads
system.mem_ctrl.wrPerTurnAround::18              6780     97.15%     99.63% # Writes before turning the bus around for reads
system.mem_ctrl.wrPerTurnAround::19                26      0.37%    100.00% # Writes before turning the bus around for reads
system.mem_ctrl.wrPerTurnAround::total           6979                       # Writes before turning the bus around for reads
system.mem_ctrl.totQLat                    2049586500                       # Total ticks spent queuing
system.mem_ctrl.totMemAccLat               4412705250                       # Total ticks spent from burst creation until serviced by the DRAM
system.mem_ctrl.totBusLat                   630165000                       # Total ticks spent in databus transfers
system.mem_ctrl.avgQLat                      16262.30                       # Average queueing delay per DRAM burst
system.mem_ctrl.avgBusLat                     5000.00                       # Average bus latency per DRAM burst
system.mem_ctrl.avgMemAccLat                 35012.30                       # Average memory access latency per DRAM burst
system.mem_ctrl.avgRdBW                        121.75                       # Average DRAM read bandwidth in MiByte/s
system.mem_ctrl.avgWrBW                        121.06                       # Average achieved write bandwidth in MiByte/s
system.mem_ctrl.avgRdBWSys                     122.09                       # Average system read bandwidth in MiByte/s
system.mem_ctrl.avgWrBWSys                     121.11                       # Average system write bandwidth in MiByte/s
system.mem_ctrl.peakBW                       12800.00                       # Theoretical peak bandwidth in MiByte/s
system.mem_ctrl.busUtil                          1.90                       # Data bus utilization in percentage
system.mem_ctrl.busUtilRead                      0.95                       # Data bus utilization in percentage for reads
system.mem_ctrl.busUtilWrite                     0.95                       # Data bus utilization in percentage for writes
system.mem_ctrl.avgRdQLen                        1.00                       # Average read queue length when enqueuing
system.mem_ctrl.avgWrQLen                       24.46                       # Average write queue length when enqueuing
system.mem_ctrl.readRowHits                    111986                       # Number of row buffer hits during reads
system.mem_ctrl.writeRowHits                    73556                       # Number of row buffer hits during writes
system.mem_ctrl.readRowHitRate                  88.85                       # Row buffer hit rate for reads
system.mem_ctrl.writeRowHitRate                 58.68                       # Row buffer hit rate for writes
system.mem_ctrl.avgGap                      263158.61                       # Average gap between requests
system.mem_ctrl.pageHitRate                     73.81                       # Row buffer hit rate, read and write combined
system.mem_ctrl_0.actEnergy                 235484340                       # Energy for activate commands per rank (pJ)
system.mem_ctrl_0.preEnergy                 125136330                       # Energy for precharge commands per rank (pJ)
system.mem_ctrl_0.readEnergy                447777960                       # Energy for read commands per rank (pJ)
system.mem_ctrl_0.writeEnergy               326855520                       # Energy for write commands per rank (pJ)
system.mem_ctrl_0.refreshEnergy          5708776320.000001                       # Energy for refresh commands per rank (pJ)
system.mem_ctrl_0.actBackEnergy            8211449070                       # Energy for active background per rank (pJ)
system.mem_ctrl_0.preBackEnergy             319168800                       # Energy for precharge background per rank (pJ)
system.mem_ctrl_0.actPowerDownEnergy      12762955500                       # Energy for active power-down per rank (pJ)
system.mem_ctrl_0.prePowerDownEnergy       6552185280                       # Energy for precharge power-down per rank (pJ)
system.mem_ctrl_0.selfRefreshEnergy        1216033560                       # Energy for self refresh per rank (pJ)
system.mem_ctrl_0.totalEnergy             35932457730                       # Total energy per rank (pJ)
system.mem_ctrl_0.averagePower             542.379432                       # Core power per rank (mW)
system.mem_ctrl_0.totalIdleTime           47351913000                       # Total Idle time Per DRAM Rank
system.mem_ctrl_0.memoryStateTime::IDLE     648495250                       # Time in different power states
system.mem_ctrl_0.memoryStateTime::REF     2421954000                       # Time in different power states
system.mem_ctrl_0.memoryStateTime::SREF    2299717250                       # Time in different power states
system.mem_ctrl_0.memoryStateTime::PRE_PDN  17063013750                       # Time in different power states
system.mem_ctrl_0.memoryStateTime::ACT    15827263000                       # Time in different power states
system.mem_ctrl_0.memoryStateTime::ACT_PDN  27989224750                       # Time in different power states
system.mem_ctrl_1.actEnergy                 234399060                       # Energy for activate commands per rank (pJ)
system.mem_ctrl_1.preEnergy                 124563285                       # Energy for precharge commands per rank (pJ)
system.mem_ctrl_1.readEnergy                452097660                       # Energy for read commands per rank (pJ)
system.mem_ctrl_1.writeEnergy               327309660                       # Energy for write commands per rank (pJ)
system.mem_ctrl_1.refreshEnergy          5695868880.000001                       # Energy for refresh commands per rank (pJ)
system.mem_ctrl_1.actBackEnergy            8124950430                       # Energy for active background per rank (pJ)
system.mem_ctrl_1.preBackEnergy             329311680                       # Energy for precharge background per rank (pJ)
system.mem_ctrl_1.actPowerDownEnergy      12948167310                       # Energy for active power-down per rank (pJ)
system.mem_ctrl_1.prePowerDownEnergy       6425772480                       # Energy for precharge power-down per rank (pJ)
system.mem_ctrl_1.selfRefreshEnergy        1230641760                       # Energy for self refresh per rank (pJ)
system.mem_ctrl_1.totalEnergy             35918178165                       # Total energy per rank (pJ)
system.mem_ctrl_1.averagePower             542.163880                       # Core power per rank (mW)
system.mem_ctrl_1.totalIdleTime           47518327750                       # Total Idle time Per DRAM Rank
system.mem_ctrl_1.memoryStateTime::IDLE     672810250                       # Time in different power states
system.mem_ctrl_1.memoryStateTime::REF     2416446000                       # Time in different power states
system.mem_ctrl_1.memoryStateTime::SREF    2389443250                       # Time in different power states
system.mem_ctrl_1.memoryStateTime::PRE_PDN  16733794250                       # Time in different power states
system.mem_ctrl_1.memoryStateTime::ACT    15641876750                       # Time in different power states
system.mem_ctrl_1.memoryStateTime::ACT_PDN  28395297500                       # Time in different power states
system.pwrStateResidencyTicks::UNDEFINED  66249668000                       # Cumulative time (in ticks) in various power states
system.cache.pwrStateResidencyTicks::UNDEFINED  66249668000                       # Cumulative time (in ticks) in various power states
system.cache.hits                            57886803                       # Number of hits
system.cache.misses                            126386                       # Number of misses
system.cache.missLatency::samples              126386                       # Ticks for misses to the cache
system.cache.missLatency::mean           65169.235517                       # Ticks for misses to the cache
system.cache.missLatency::gmean          59353.769744                       # Ticks for misses to the cache
system.cache.missLatency::stdev          47966.912679                       # Ticks for misses to the cache
system.cache.missLatency::0-65535              114441     90.55%     90.55% # Ticks for misses to the cache
system.cache.missLatency::65536-131071           6853      5.42%     95.97% # Ticks for misses to the cache
system.cache.missLatency::131072-196607          1356      1.07%     97.04% # Ticks for misses to the cache
system.cache.missLatency::196608-262143           104      0.08%     97.13% # Ticks for misses to the cache
system.cache.missLatency::262144-327679          1343      1.06%     98.19% # Ticks for misses to the cache
system.cache.missLatency::327680-393215          2268      1.79%     99.98% # Ticks for misses to the cache
system.cache.missLatency::393216-458751             0      0.00%     99.98% # Ticks for misses to the cache
system.cache.missLatency::458752-524287             0      0.00%     99.98% # Ticks for misses to the cache
system.cache.missLatency::524288-589823             0      0.00%     99.98% # Ticks for misses to the cache
system.cache.missLatency::589824-655359            21      0.02%    100.00% # Ticks for misses to the cache
system.cache.missLatency::655360-720895             0      0.00%    100.00% # Ticks for misses to the cache
system.cache.missLatency::720896-786431             0      0.00%    100.00% # Ticks for misses to the cache
system.cache.missLatency::786432-851967             0      0.00%    100.00% # Ticks for misses to the cache
system.cache.missLatency::851968-917503             0      0.00%    100.00% # Ticks for misses to the cache
system.cache.missLatency::917504-983039             0      0.00%    100.00% # Ticks for misses to the cache
system.cache.missLatency::983040-1.04858e+06            0      0.00%    100.00% # Ticks for misses to the cache
system.cache.missLatency::total                126386                       # Ticks for misses to the cache
system.cache.hitRatio                        0.997821                       # The ratio of hits to the total accesses to the cache
system.cpu.dtb.fetch_hits                           0                       # ITB hits
system.cpu.dtb.fetch_misses                         0                       # ITB misses
system.cpu.dtb.fetch_acv                            0                       # ITB acv
system.cpu.dtb.fetch_accesses                       0                       # ITB accesses
system.cpu.dtb.read_hits                     10001315                       # DTB read hits
system.cpu.dtb.read_misses                        516                       # DTB read misses
system.cpu.dtb.read_acv                             0                       # DTB read access violations
system.cpu.dtb.read_accesses                 10001831                       # DTB read accesses
system.cpu.dtb.write_hits                     4001460                       # DTB write hits
system.cpu.dtb.write_misses                       915                       # DTB write misses
system.cpu.dtb.write_acv                            0                       # DTB write access violations
system.cpu.dtb.write_accesses                 4002375                       # DTB write accesses
system.cpu.dtb.data_hits                     14002775                       # DTB hits
system.cpu.dtb.data_misses                       1431                       # DTB misses
system.cpu.dtb.data_acv                             0                       # DTB access violations
system.cpu.dtb.data_accesses                 14004206                       # DTB accesses
system.cpu.itb.fetch_hits                    44010415                       # ITB hits
system.cpu.itb.fetch_misses                        19                       # ITB misses
system.cpu.itb.fetch_acv                            0                       # ITB acv
system.cpu.itb.fetch_accesses                44010434                       # ITB accesses
system.cpu.itb.read_hits                            0                       # DTB read hits
system.cpu.itb.read_misses                          0                       # DTB read misses
system.cpu.itb.read_acv                             0                       # DTB read access violations
system.cpu.itb.read_accesses                        0                       # DTB read accesses
system.cpu.itb.write_hits                           0                       # DTB write hits
system.cpu.itb.write_misses                         0                       # DTB write misses
system.cpu.itb.write_acv                            0                       # DTB write access violations
system.cpu.itb.write_accesses                       0                       # DTB write accesses
system.cpu.itb.data_hits                            0                       # DTB hits
system.cpu.itb.data_misses                          0                       # DTB misses
system.cpu.itb.data_acv                             0                       # DTB access violations
system.cpu.itb.data_accesses                        0                       # DTB accesses
system.cpu.workload.numSyscalls                    10                       # Number of system calls
system.cpu.pwrStateResidencyTicks::ON     66249668000                       # Cumulative time (in ticks) in various power states
system.cpu.numCycles                         66249668                       # number of cpu cycles simulated
system.cpu.numWorkItemsStarted                      0                       # number of work items this cpu started
system.cpu.numWorkItemsCompleted                    0                       # number of work items this cpu completed
system.cpu.committedInsts                    44008983                       # Number of instructions committed
system.cpu.committedOps                      44008983                       # Number of ops (including micro ops) committed
system.cpu.num_int_alu_accesses              42010330                       # Number of integer alu accesses
system.cpu.num_fp_alu_accesses                     16                       # Number of float alu accesses
system.cpu.num_vec_alu_accesses                     0                       # Number of vector alu accesses
system.cpu.num_func_calls                         231                       # number of times a function call or return occured
system.cpu.num_conditional_control_insts      2001276                       # number of instructions that are conditional controls
system.cpu.num_int_insts                     42010330                       # number of integer instructions
system.cpu.num_fp_insts                            16                       # number of float instructions
system.cpu.num_vec_insts                            0                       # number of vector instructions
system.cpu.num_int_register_reads            53014129                       # number of times the integer registers were read
system.cpu.num_int_register_writes           36006038                       # number of times the integer registers were written
system.cpu.num_fp_register_reads                   14                       # number of times the floating registers were read
system.cpu.num_fp_register_writes                   2                       # number of times the floating registers were written
system.cpu.num_vec_register_reads                   0                       # number of times the vector registers were read
system.cpu.num_vec_register_writes                  0                       # number of times the vector registers were written
system.cpu.num_mem_refs                      14004206                       # number of memory refs
system.cpu.num_load_insts                    10001831                       # Number of load instructions
system.cpu.num_store_insts                    4002375                       # Number of store instructions
system.cpu.num_idle_cycles                          0                       # Number of idle cycles
system.cpu.num_busy_cycles                   66249668                       # Number of busy cycles
system.cpu.not_idle_fraction                        1                       # Percentage of non-idle cycles
system.cpu.idle_fraction                            0                       # Percentage of idle cycles
system.cpu.Branches                           4001572                       # Number of branches fetched
system.cpu.op_class::No_OpClass                    22      0.00%      0.00% # Class of executed instruction
system.cpu.op_class::IntAlu                  30006176     68.18%     68.18% # Class of executed instruction
system.cpu.op_class::IntMult                        8      0.00%     68.18% # Class of executed instruction
system.cpu.op_class::IntDiv                         0      0.00%     68.18% # Class of executed instruction
system.cpu.op_class::FloatAdd                       2      0.00%     68.18% # Class of executed instruction
system.cpu.op_class::FloatCmp                       0      0.00%     68.18% # Class of executed instruction
system.cpu.op_class::FloatCvt                       0      0.00%     68.18% # Class of executed instruction
system.cpu.op_class::FloatMult                      0      0.00%     68.18% # Class of executed instruction
system.cpu.op_class::FloatMultAcc                   0      0.00%     68.18% # Class of executed instruction
system.cpu.op_class::FloatDiv                       0      0.00%     68.18% # Class of executed instruction
system.cpu.op_class::FloatMisc                      0      0.00%     68.18% # Class of executed instruction
system.cpu.op_class::FloatSqrt                      0      0.00%     68.18% # Class of executed instruction
system.cpu.op_class::SimdAdd                        0      0.00%     68.18% # Class of executed instruction
system.cpu.op_class::SimdAddAcc                     0      0.00%     68.18% # Class of executed instruction
system.cpu.op_class::SimdAlu                        0      0.00%     68.18% # Class of executed instruction
system.cpu.op_class::SimdCmp                        0      0.00%     68.18% # Class of executed instruction
system.cpu.op_class::SimdCvt                        0      0.00%     68.18% # Class of executed instruction
system.cpu.op_class::SimdMisc                       0      0.00%     68.18% # Class of executed instruction
system.cpu.op_class::SimdMult                       0      0.00%     68.18% # Class of executed instruction
system.cpu.op_class::SimdMultAcc                    0      0.00%     68.18% # Class of executed instruction
system.cpu.op_class::SimdShift                      0      0.00%     68.18% # Class of executed instruction
system.cpu.op_class::SimdShiftAcc                   0      0.00%     68.18% # Class of executed instruction
system.cpu.op_class::SimdSqrt                       0      0.00%     68.18% # Class of executed instruction
system.cpu.op_class::SimdFloatAdd                   0      0.00%     68.18% # Class of executed instruction
system.cpu.op_class::SimdFloatAlu                   0      0.00%     68.18% # Class of executed instruction
system.cpu.op_class::SimdFloatCmp                   0      0.00%     68.18% # Class of executed instruction
system.cpu.op_class::SimdFloatCvt                   0      0.00%     68.18% # Class of executed instruction
system.cpu.op_class::SimdFloatDiv                   0      0.00%     68.18% # Class of executed instruction
system.cpu.op_class::SimdFloatMisc                  0      0.00%     68.18% # Class of executed instruction
system.cpu.op_class::SimdFloatMult                  0      0.00%     68.18% # Class of executed instruction
system.cpu.op_class::SimdFloatMultAcc               0      0.00%     68.18% # Class of executed instruction
system.cpu.op_class::SimdFloatSqrt                  0      0.00%     68.18% # Class of executed instruction
system.cpu.op_class::MemRead                 10001830     22.73%     90.91% # Class of executed instruction
system.cpu.op_class::MemWrite                 4002362      9.09%    100.00% # Class of executed instruction
system.cpu.op_class::FloatMemRead                   1      0.00%    100.00% # Class of executed instruction
system.cpu.op_class::FloatMemWrite                 13      0.00%    100.00% # Class of executed instruction
system.cpu.op_class::IprAccess                      0      0.00%    100.00% # Class of executed instruction
system.cpu.op_class::InstPrefetch                   0      0.00%    100.00% # Class of executed instruction
system.cpu.op_class::total                   44010414                       # Class of executed instruction
system.membus.snoop_filter.tot_requests             0                       # Total number of requests made to the snoop filter.
system.membus.snoop_filter.hit_single_requests            0                       # Number of requests hitting in the snoop filter with a single holder of the requested data.
system.membus.snoop_filter.hit_multi_requests            0                       # Number of requests hitting in the snoop filter with multiple (>1) holders of the requested data.
system.membus.snoop_filter.tot_snoops               0                       # Total number of snoops made to the snoop filter.
system.membus.snoop_filter.hit_single_snoops            0                       # Number of snoops hitting in the snoop filter with a single holder of the requested data.
system.membus.snoop_filter.hit_multi_snoops            0                       # Number of snoops hitting in the snoop filter with multiple (>1) holders of the requested data.
system.membus.pwrStateResidencyTicks::UNDEFINED  66249668000                       # Cumulative time (in ticks) in various power states
system.membus.trans_dist::ReadReq              126386                       # Transaction distribution
system.membus.trans_dist::ReadResp             126386                       # Transaction distribution
system.membus.trans_dist::WritebackDirty       125362                       # Transaction distribution
system.membus.pkt_count_system.cache.mem_side::system.mem_ctrl.port       378134                       # Packet count per connected master and slave (bytes)
system.membus.pkt_count::total                 378134                       # Packet count per connected master and slave (bytes)
system.membus.pkt_size_system.cache.mem_side::system.mem_ctrl.port     16111872                       # Cumulative packet size per connected master and slave (bytes)
system.membus.pkt_size::total                16111872                       # Cumulative packet size per connected master and slave (bytes)
system.membus.snoops                                0                       # Total snoops (count)
system.membus.snoopTraffic                          0                       # Total snoop traffic (bytes)
system.membus.snoop_fanout::samples            126386                       # Request fanout histogram
system.membus.snoop_fanout::mean                    0                       # Request fanout histogram
system.membus.snoop_fanout::stdev                   0                       # Request fanout histogram
system.membus.snoop_fanout::underflows              0      0.00%      0.00% # Request fanout histogram
system.membus.snoop_fanout::0                  126386    100.00%    100.00% # Request fanout histogram
system.membus.snoop_fanout::overflows               0      0.00%    100.00% # Request fanout histogram
system.membus.snoop_fanout::min_value               0                       # Request fanout histogram
system.membus.snoop_fanout::max_value               0                       # Request fanout histogram
system.membus.snoop_fanout::total              126386                       # Request fanout histogram
system.membus.reqLayer0.occupancy           753196000                       # Layer occupancy (ticks)
system.membus.reqLayer0.utilization               1.1                       # Layer utilization (%)
system.membus.respLayer0.occupancy          666698750                       # Layer occupancy (ticks)
system.membus.respLayer0.utilization              1.0                       # Layer utilization (%)

---------- End Simulation Statistics   ----------
