
---------- Begin Simulation Statistics ----------
sim_seconds                                  0.818846                       # Number of seconds simulated
sim_ticks                                818846036000                       # Number of ticks simulated
final_tick                               818846036000                       # Number of ticks from beginning of simulation (restored from checkpoints and never reset)
sim_freq                                 1000000000000                       # Frequency of simulated ticks
host_inst_rate                                  14619                       # Simulator instruction rate (inst/s)
host_op_rate                                    14619                       # Simulator op (including micro ops) rate (op/s)
host_tick_rate                              272005584                       # Simulator tick rate (ticks/s)
host_mem_usage                                8991228                       # Number of bytes of host memory used
host_seconds                                  3010.40                       # Real time elapsed on the host
sim_insts                                    44008983                       # Number of instructions simulated
sim_ops                                      44008983                       # Number of ops (including micro ops) simulated
system.clk_domain.voltage_domain.voltage            1                       # Voltage in Volts
system.clk_domain.clock                          1000                       # Clock period in ticks
system.mem_ctrl.pwrStateResidencyTicks::UNDEFINED 818846036000                       # Cumulative time (in ticks) in various power states
system.mem_ctrl.bytes_read::cpu.inst       1192779200                       # Number of bytes read from this memory
system.mem_ctrl.bytes_read::cpu.data        875552512                       # Number of bytes read from this memory
system.mem_ctrl.bytes_read::total          2068331712                       # Number of bytes read from this memory
system.mem_ctrl.bytes_inst_read::cpu.inst   1192779200                       # Number of instructions bytes read from this memory
system.mem_ctrl.bytes_inst_read::total     1192779200                       # Number of instructions bytes read from this memory
system.mem_ctrl.bytes_written::writebacks   2068266176                       # Number of bytes written to this memory
system.mem_ctrl.bytes_written::total       2068266176                       # Number of bytes written to this memory
system.mem_ctrl.num_reads::cpu.inst          18637175                       # Number of read requests responded to by this memory
system.mem_ctrl.num_reads::cpu.data          13680508                       # Number of read requests responded to by this memory
system.mem_ctrl.num_reads::total             32317683                       # Number of read requests responded to by this memory
system.mem_ctrl.num_writes::writebacks       32316659                       # Number of write requests responded to by this memory
system.mem_ctrl.num_writes::total            32316659                       # Number of write requests responded to by this memory
system.mem_ctrl.bw_read::cpu.inst          1456658697                       # Total read bandwidth from this memory (bytes/s)
system.mem_ctrl.bw_read::cpu.data          1069251695                       # Total read bandwidth from this memory (bytes/s)
system.mem_ctrl.bw_read::total             2525910392                       # Total read bandwidth from this memory (bytes/s)
system.mem_ctrl.bw_inst_read::cpu.inst     1456658697                       # Instruction read bandwidth from this memory (bytes/s)
system.mem_ctrl.bw_inst_read::total        1456658697                       # Instruction read bandwidth from this memory (bytes/s)
system.mem_ctrl.bw_write::writebacks       2525830358                       # Write bandwidth from this memory (bytes/s)
system.mem_ctrl.bw_write::total            2525830358                       # Write bandwidth from this memory (bytes/s)
system.mem_ctrl.bw_total::writebacks       2525830358                       # Total bandwidth to/from this memory (bytes/s)
system.mem_ctrl.bw_total::cpu.inst         1456658697                       # Total bandwidth to/from this memory (bytes/s)
system.mem_ctrl.bw_total::cpu.data         1069251695                       # Total bandwidth to/from this memory (bytes/s)
system.mem_ctrl.bw_total::total            5051740750                       # Total bandwidth to/from this memory (bytes/s)
system.mem_ctrl.readReqs                     32317683                       # Number of read requests accepted
system.mem_ctrl.writeReqs                    32316659                       # Number of write requests accepted
system.mem_ctrl.readBursts                   32317683                       # Number of DRAM read bursts, including those serviced by the write queue
system.mem_ctrl.writeBursts                  32316659                       # Number of DRAM write bursts, including those merged in the write queue
system.mem_ctrl.bytesReadDRAM                 8661568                       # Total number of bytes read from DRAM
system.mem_ctrl.bytesReadWrQ               2059670144                       # Total number of bytes read from write queue
system.mem_ctrl.bytesWritten                  9151296                       # Total number of bytes written to DRAM
system.mem_ctrl.bytesReadSys               2068331712                       # Total read bytes from the system interface side
system.mem_ctrl.bytesWrittenSys            2068266176                       # Total written bytes from the system interface side
system.mem_ctrl.servicedByWrQ                32182346                       # Number of DRAM read bursts serviced by the write queue
system.mem_ctrl.mergedWrBursts               32173641                       # Number of DRAM write bursts merged with an existing one
system.mem_ctrl.neitherReadNorWriteReqs             0                       # Number of requests that are neither read nor write
system.mem_ctrl.perBankRdBursts::0              12426                       # Per bank write bursts
system.mem_ctrl.perBankRdBursts::1               8280                       # Per bank write bursts
system.mem_ctrl.perBankRdBursts::2              10142                       # Per bank write bursts
system.mem_ctrl.perBankRdBursts::3               8054                       # Per bank write bursts
system.mem_ctrl.perBankRdBursts::4               8049                       # Per bank write bursts
system.mem_ctrl.perBankRdBursts::5               7969                       # Per bank write bursts
system.mem_ctrl.perBankRdBursts::6               7958                       # Per bank write bursts
system.mem_ctrl.perBankRdBursts::7               7860                       # Per bank write bursts
system.mem_ctrl.perBankRdBursts::8               7883                       # Per bank write bursts
system.mem_ctrl.perBankRdBursts::9               8149                       # Per bank write bursts
system.mem_ctrl.perBankRdBursts::10              7864                       # Per bank write bursts
system.mem_ctrl.perBankRdBursts::11              8123                       # Per bank write bursts
system.mem_ctrl.perBankRdBursts::12              8119                       # Per bank write bursts
system.mem_ctrl.perBankRdBursts::13              8128                       # Per bank write bursts
system.mem_ctrl.perBankRdBursts::14              8172                       # Per bank write bursts
system.mem_ctrl.perBankRdBursts::15              8161                       # Per bank write bursts
system.mem_ctrl.perBankWrBursts::0              17616                       # Per bank write bursts
system.mem_ctrl.perBankWrBursts::1               8345                       # Per bank write bursts
system.mem_ctrl.perBankWrBursts::2              11962                       # Per bank write bursts
system.mem_ctrl.perBankWrBursts::3               8120                       # Per bank write bursts
system.mem_ctrl.perBankWrBursts::4               8116                       # Per bank write bursts
system.mem_ctrl.perBankWrBursts::5               8034                       # Per bank write bursts
system.mem_ctrl.perBankWrBursts::6               8017                       # Per bank write bursts
system.mem_ctrl.perBankWrBursts::7               7908                       # Per bank write bursts
system.mem_ctrl.perBankWrBursts::8               7924                       # Per bank write bursts
system.mem_ctrl.perBankWrBursts::9               8176                       # Per bank write bursts
system.mem_ctrl.perBankWrBursts::10              7893                       # Per bank write bursts
system.mem_ctrl.perBankWrBursts::11              8155                       # Per bank write bursts
system.mem_ctrl.perBankWrBursts::12              8159                       # Per bank write bursts
system.mem_ctrl.perBankWrBursts::13              8157                       # Per bank write bursts
system.mem_ctrl.perBankWrBursts::14              8200                       # Per bank write bursts
system.mem_ctrl.perBankWrBursts::15              8207                       # Per bank write bursts
system.mem_ctrl.numRdRetry                          0                       # Number of times read queue was full causing retry
system.mem_ctrl.numWrRetry                          0                       # Number of times write queue was full causing retry
system.mem_ctrl.totGap                   818846032000                       # Total gap between requests
system.mem_ctrl.readPktSize::0                      0                       # Read request sizes (log2)
system.mem_ctrl.readPktSize::1                      0                       # Read request sizes (log2)
system.mem_ctrl.readPktSize::2                      0                       # Read request sizes (log2)
system.mem_ctrl.readPktSize::3                      0                       # Read request sizes (log2)
system.mem_ctrl.readPktSize::4                      0                       # Read request sizes (log2)
system.mem_ctrl.readPktSize::5                      0                       # Read request sizes (log2)
system.mem_ctrl.readPktSize::6               32317683                       # Read request sizes (log2)
system.mem_ctrl.writePktSize::0                     0                       # Write request sizes (log2)
system.mem_ctrl.writePktSize::1                     0                       # Write request sizes (log2)
system.mem_ctrl.writePktSize::2                     0                       # Write request sizes (log2)
system.mem_ctrl.writePktSize::3                     0                       # Write request sizes (log2)
system.mem_ctrl.writePktSize::4                     0                       # Write request sizes (log2)
system.mem_ctrl.writePktSize::5                     0                       # Write request sizes (log2)
system.mem_ctrl.writePktSize::6              32316659                       # Write request sizes (log2)
system.mem_ctrl.rdQLenPdf::0                   135337                       # What read queue length does an incoming req see
system.mem_ctrl.rdQLenPdf::1                        0                       # What read queue length does an incoming req see
system.mem_ctrl.rdQLenPdf::2                        0                       # What read queue length does an incoming req see
system.mem_ctrl.rdQLenPdf::3                        0                       # What read queue length does an incoming req see
system.mem_ctrl.rdQLenPdf::4                        0                       # What read queue length does an incoming req see
system.mem_ctrl.rdQLenPdf::5                        0                       # What read queue length does an incoming req see
system.mem_ctrl.rdQLenPdf::6                        0                       # What read queue length does an incoming req see
system.mem_ctrl.rdQLenPdf::7                        0                       # What read queue length does an incoming req see
system.mem_ctrl.rdQLenPdf::8                        0                       # What read queue length does an incoming req see
system.mem_ctrl.rdQLenPdf::9                        0                       # What read queue length does an incoming req see
system.mem_ctrl.rdQLenPdf::10                       0                       # What read queue length does an incoming req see
system.mem_ctrl.rdQLenPdf::11                       0                       # What read queue length does an incoming req see
system.mem_ctrl.rdQLenPdf::12                       0                       # What read queue length does an incoming req see
system.mem_ctrl.rdQLenPdf::13                       0                       # What read queue length does an incoming req see
system.mem_ctrl.rdQLenPdf::14                       0                       # What read queue length does an incoming req see
system.mem_ctrl.rdQLenPdf::15                       0                       # What read queue length does an incoming req see
system.mem_ctrl.rdQLenPdf::16                       0                       # What read queue length does an incoming req see
system.mem_ctrl.rdQLenPdf::17                       0                       # What read queue length does an incoming req see
system.mem_ctrl.rdQLenPdf::18                       0                       # What read queue length does an incoming req see
system.mem_ctrl.rdQLenPdf::19                       0                       # What read queue length does an incoming req see
system.mem_ctrl.rdQLenPdf::20                       0                       # What read queue length does an incoming req see
system.mem_ctrl.rdQLenPdf::21                       0                       # What read queue length does an incoming req see
system.mem_ctrl.rdQLenPdf::22                       0                       # What read queue length does an incoming req see
system.mem_ctrl.rdQLenPdf::23                       0                       # What read queue length does an incoming req see
system.mem_ctrl.rdQLenPdf::24                       0                       # What read queue length does an incoming req see
system.mem_ctrl.rdQLenPdf::25                       0                       # What read queue length does an incoming req see
system.mem_ctrl.rdQLenPdf::26                       0                       # What read queue length does an incoming req see
system.mem_ctrl.rdQLenPdf::27                       0                       # What read queue length does an incoming req see
system.mem_ctrl.rdQLenPdf::28                       0                       # What read queue length does an incoming req see
system.mem_ctrl.rdQLenPdf::29                       0                       # What read queue length does an incoming req see
system.mem_ctrl.rdQLenPdf::30                       0                       # What read queue length does an incoming req see
system.mem_ctrl.rdQLenPdf::31                       0                       # What read queue length does an incoming req see
system.mem_ctrl.wrQLenPdf::0                        1                       # What write queue length does an incoming req see
system.mem_ctrl.wrQLenPdf::1                        1                       # What write queue length does an incoming req see
system.mem_ctrl.wrQLenPdf::2                        1                       # What write queue length does an incoming req see
system.mem_ctrl.wrQLenPdf::3                        1                       # What write queue length does an incoming req see
system.mem_ctrl.wrQLenPdf::4                        1                       # What write queue length does an incoming req see
system.mem_ctrl.wrQLenPdf::5                        1                       # What write queue length does an incoming req see
system.mem_ctrl.wrQLenPdf::6                        1                       # What write queue length does an incoming req see
system.mem_ctrl.wrQLenPdf::7                        1                       # What write queue length does an incoming req see
system.mem_ctrl.wrQLenPdf::8                        1                       # What write queue length does an incoming req see
system.mem_ctrl.wrQLenPdf::9                        1                       # What write queue length does an incoming req see
system.mem_ctrl.wrQLenPdf::10                       1                       # What write queue length does an incoming req see
system.mem_ctrl.wrQLenPdf::11                       1                       # What write queue length does an incoming req see
system.mem_ctrl.wrQLenPdf::12                       1                       # What write queue length does an incoming req see
system.mem_ctrl.wrQLenPdf::13                       1                       # What write queue length does an incoming req see
system.mem_ctrl.wrQLenPdf::14                       1                       # What write queue length does an incoming req see
system.mem_ctrl.wrQLenPdf::15                    5862                       # What write queue length does an incoming req see
system.mem_ctrl.wrQLenPdf::16                    6820                       # What write queue length does an incoming req see
system.mem_ctrl.wrQLenPdf::17                    7930                       # What write queue length does an incoming req see
system.mem_ctrl.wrQLenPdf::18                    9786                       # What write queue length does an incoming req see
system.mem_ctrl.wrQLenPdf::19                    8224                       # What write queue length does an incoming req see
system.mem_ctrl.wrQLenPdf::20                    8095                       # What write queue length does an incoming req see
system.mem_ctrl.wrQLenPdf::21                    8059                       # What write queue length does an incoming req see
system.mem_ctrl.wrQLenPdf::22                    8025                       # What write queue length does an incoming req see
system.mem_ctrl.wrQLenPdf::23                    8129                       # What write queue length does an incoming req see
system.mem_ctrl.wrQLenPdf::24                    8018                       # What write queue length does an incoming req see
system.mem_ctrl.wrQLenPdf::25                    8020                       # What write queue length does an incoming req see
system.mem_ctrl.wrQLenPdf::26                    8006                       # What write queue length does an incoming req see
system.mem_ctrl.wrQLenPdf::27                    8007                       # What write queue length does an incoming req see
system.mem_ctrl.wrQLenPdf::28                    8006                       # What write queue length does an incoming req see
system.mem_ctrl.wrQLenPdf::29                    8006                       # What write queue length does an incoming req see
system.mem_ctrl.wrQLenPdf::30                    8003                       # What write queue length does an incoming req see
system.mem_ctrl.wrQLenPdf::31                    8004                       # What write queue length does an incoming req see
system.mem_ctrl.wrQLenPdf::32                    8003                       # What write queue length does an incoming req see
system.mem_ctrl.wrQLenPdf::33                       0                       # What write queue length does an incoming req see
system.mem_ctrl.wrQLenPdf::34                       0                       # What write queue length does an incoming req see
system.mem_ctrl.wrQLenPdf::35                       0                       # What write queue length does an incoming req see
system.mem_ctrl.wrQLenPdf::36                       0                       # What write queue length does an incoming req see
system.mem_ctrl.wrQLenPdf::37                       0                       # What write queue length does an incoming req see
system.mem_ctrl.wrQLenPdf::38                       0                       # What write queue length does an incoming req see
system.mem_ctrl.wrQLenPdf::39                       0                       # What write queue length does an incoming req see
system.mem_ctrl.wrQLenPdf::40                       0                       # What write queue length does an incoming req see
system.mem_ctrl.wrQLenPdf::41                       0                       # What write queue length does an incoming req see
system.mem_ctrl.wrQLenPdf::42                       0                       # What write queue length does an incoming req see
system.mem_ctrl.wrQLenPdf::43                       0                       # What write queue length does an incoming req see
system.mem_ctrl.wrQLenPdf::44                       0                       # What write queue length does an incoming req see
system.mem_ctrl.wrQLenPdf::45                       0                       # What write queue length does an incoming req see
system.mem_ctrl.wrQLenPdf::46                       0                       # What write queue length does an incoming req see
system.mem_ctrl.wrQLenPdf::47                       0                       # What write queue length does an incoming req see
system.mem_ctrl.wrQLenPdf::48                       0                       # What write queue length does an incoming req see
system.mem_ctrl.wrQLenPdf::49                       0                       # What write queue length does an incoming req see
system.mem_ctrl.wrQLenPdf::50                       0                       # What write queue length does an incoming req see
system.mem_ctrl.wrQLenPdf::51                       0                       # What write queue length does an incoming req see
system.mem_ctrl.wrQLenPdf::52                       0                       # What write queue length does an incoming req see
system.mem_ctrl.wrQLenPdf::53                       0                       # What write queue length does an incoming req see
system.mem_ctrl.wrQLenPdf::54                       0                       # What write queue length does an incoming req see
system.mem_ctrl.wrQLenPdf::55                       0                       # What write queue length does an incoming req see
system.mem_ctrl.wrQLenPdf::56                       0                       # What write queue length does an incoming req see
system.mem_ctrl.wrQLenPdf::57                       0                       # What write queue length does an incoming req see
system.mem_ctrl.wrQLenPdf::58                       0                       # What write queue length does an incoming req see
system.mem_ctrl.wrQLenPdf::59                       0                       # What write queue length does an incoming req see
system.mem_ctrl.wrQLenPdf::60                       0                       # What write queue length does an incoming req see
system.mem_ctrl.wrQLenPdf::61                       0                       # What write queue length does an incoming req see
system.mem_ctrl.wrQLenPdf::62                       0                       # What write queue length does an incoming req see
system.mem_ctrl.wrQLenPdf::63                       0                       # What write queue length does an incoming req see
system.mem_ctrl.bytesPerActivate::samples       117790                       # Bytes accessed per row activation
system.mem_ctrl.bytesPerActivate::mean     151.217998                       # Bytes accessed per row activation
system.mem_ctrl.bytesPerActivate::gmean     96.074085                       # Bytes accessed per row activation
system.mem_ctrl.bytesPerActivate::stdev    232.651440                       # Bytes accessed per row activation
system.mem_ctrl.bytesPerActivate::0-127         79335     67.35%     67.35% # Bytes accessed per row activation
system.mem_ctrl.bytesPerActivate::128-255        26519     22.51%     89.87% # Bytes accessed per row activation
system.mem_ctrl.bytesPerActivate::256-383         3268      2.77%     92.64% # Bytes accessed per row activation
system.mem_ctrl.bytesPerActivate::384-511          414      0.35%     92.99% # Bytes accessed per row activation
system.mem_ctrl.bytesPerActivate::512-639          304      0.26%     93.25% # Bytes accessed per row activation
system.mem_ctrl.bytesPerActivate::640-767          381      0.32%     93.57% # Bytes accessed per row activation
system.mem_ctrl.bytesPerActivate::768-895          376      0.32%     93.89% # Bytes accessed per row activation
system.mem_ctrl.bytesPerActivate::896-1023          838      0.71%     94.60% # Bytes accessed per row activation
system.mem_ctrl.bytesPerActivate::1024-1151         6355      5.40%    100.00% # Bytes accessed per row activation
system.mem_ctrl.bytesPerActivate::total        117790                       # Bytes accessed per row activation
system.mem_ctrl.rdPerTurnAround::samples         8003                       # Reads before turning the bus around for writes
system.mem_ctrl.rdPerTurnAround::mean       16.909034                       # Reads before turning the bus around for writes
system.mem_ctrl.rdPerTurnAround::gmean      16.744595                       # Reads before turning the bus around for writes
system.mem_ctrl.rdPerTurnAround::stdev      11.688127                       # Reads before turning the bus around for writes
system.mem_ctrl.rdPerTurnAround::0-63            8002     99.99%     99.99% # Reads before turning the bus around for writes
system.mem_ctrl.rdPerTurnAround::1024-1087            1      0.01%    100.00% # Reads before turning the bus around for writes
system.mem_ctrl.rdPerTurnAround::total           8003                       # Reads before turning the bus around for writes
system.mem_ctrl.wrPerTurnAround::samples         8003                       # Writes before turning the bus around for reads
system.mem_ctrl.wrPerTurnAround::mean       17.866925                       # Writes before turning the bus around for reads
system.mem_ctrl.wrPerTurnAround::gmean      17.850819                       # Writes before turning the bus around for reads
system.mem_ctrl.wrPerTurnAround::stdev       0.752674                       # Writes before turning the bus around for reads
system.mem_ctrl.wrPerTurnAround::16               474      5.92%      5.92% # Writes before turning the bus around for reads
system.mem_ctrl.wrPerTurnAround::17              1366     17.07%     22.99% # Writes before turning the bus around for reads
system.mem_ctrl.wrPerTurnAround::18              4991     62.36%     85.36% # Writes before turning the bus around for reads
system.mem_ctrl.wrPerTurnAround::19              1100     13.74%     99.10% # Writes before turning the bus around for reads
system.mem_ctrl.wrPerTurnAround::20                67      0.84%     99.94% # Writes before turning the bus around for reads
system.mem_ctrl.wrPerTurnAround::21                 5      0.06%    100.00% # Writes before turning the bus around for reads
system.mem_ctrl.wrPerTurnAround::total           8003                       # Writes before turning the bus around for reads
system.mem_ctrl.totQLat                    6267405250                       # Total ticks spent queuing
system.mem_ctrl.totMemAccLat               8804974000                       # Total ticks spent from burst creation until serviced by the DRAM
system.mem_ctrl.totBusLat                   676685000                       # Total ticks spent in databus transfers
system.mem_ctrl.avgQLat                      46309.62                       # Average queueing delay per DRAM burst
system.mem_ctrl.avgBusLat                     5000.00                       # Average bus latency per DRAM burst
system.mem_ctrl.avgMemAccLat                 65059.62                       # Average memory access latency per DRAM burst
system.mem_ctrl.avgRdBW                         10.58                       # Average DRAM read bandwidth in MiByte/s
system.mem_ctrl.avgWrBW                         11.18                       # Average achieved write bandwidth in MiByte/s
system.mem_ctrl.avgRdBWSys                    2525.91                       # Average system read bandwidth in MiByte/s
system.mem_ctrl.avgWrBWSys                    2525.83                       # Average system write bandwidth in MiByte/s
system.mem_ctrl.peakBW                       12800.00                       # Theoretical peak bandwidth in MiByte/s
system.mem_ctrl.busUtil                          0.17                       # Data bus utilization in percentage
system.mem_ctrl.busUtilRead                      0.08                       # Data bus utilization in percentage for reads
system.mem_ctrl.busUtilWrite                     0.09                       # Data bus utilization in percentage for writes
system.mem_ctrl.avgRdQLen                        1.00                       # Average read queue length when enqueuing
system.mem_ctrl.avgWrQLen                       24.86                       # Average write queue length when enqueuing
system.mem_ctrl.readRowHits                     33431                       # Number of row buffer hits during reads
system.mem_ctrl.writeRowHits                   127098                       # Number of row buffer hits during writes
system.mem_ctrl.readRowHitRate                  24.70                       # Row buffer hit rate for reads
system.mem_ctrl.writeRowHitRate                 88.87                       # Row buffer hit rate for writes
system.mem_ctrl.avgGap                       12668.90                       # Average gap between requests
system.mem_ctrl.pageHitRate                     57.67                       # Row buffer hit rate, read and write combined
system.mem_ctrl_0.actEnergy                 442758540                       # Energy for activate commands per rank (pJ)
system.mem_ctrl_0.preEnergy                 235320360                       # Energy for precharge commands per rank (pJ)
system.mem_ctrl_0.readEnergy                505069320                       # Energy for read commands per rank (pJ)
system.mem_ctrl_0.writeEnergy               407775960                       # Energy for write commands per rank (pJ)
system.mem_ctrl_0.refreshEnergy          38266871760.000008                       # Energy for refresh commands per rank (pJ)
system.mem_ctrl_0.actBackEnergy           10484862720                       # Energy for active background per rank (pJ)
system.mem_ctrl_0.preBackEnergy            1305015840                       # Energy for precharge background per rank (pJ)
system.mem_ctrl_0.actPowerDownEnergy     100513750980                       # Energy for active power-down per rank (pJ)
system.mem_ctrl_0.prePowerDownEnergy      74055201120                       # Energy for precharge power-down per rank (pJ)
system.mem_ctrl_0.selfRefreshEnergy       94466603415                       # Energy for self refresh per rank (pJ)
system.mem_ctrl_0.totalEnergy            320744737215                       # Total energy per rank (pJ)
system.mem_ctrl_0.averagePower             391.703351                       # Core power per rank (mW)
system.mem_ctrl_0.totalIdleTime          792318046000                       # Total Idle time Per DRAM Rank
system.mem_ctrl_0.memoryStateTime::IDLE    1954218250                       # Time in different power states
system.mem_ctrl_0.memoryStateTime::REF    16225458000                       # Time in different power states
system.mem_ctrl_0.memoryStateTime::SREF  379039417750                       # Time in different power states
system.mem_ctrl_0.memoryStateTime::PRE_PDN 192853099750                       # Time in different power states
system.mem_ctrl_0.memoryStateTime::ACT     8348130250                       # Time in different power states
system.mem_ctrl_0.memoryStateTime::ACT_PDN 220425712000                       # Time in different power states
system.mem_ctrl_1.actEnergy                 398312040                       # Energy for activate commands per rank (pJ)
system.mem_ctrl_1.preEnergy                 211692690                       # Energy for precharge commands per rank (pJ)
system.mem_ctrl_1.readEnergy                461236860                       # Energy for read commands per rank (pJ)
system.mem_ctrl_1.writeEnergy               338626620                       # Energy for write commands per rank (pJ)
system.mem_ctrl_1.refreshEnergy          39456200160.000008                       # Energy for refresh commands per rank (pJ)
system.mem_ctrl_1.actBackEnergy           12685658370                       # Energy for active background per rank (pJ)
system.mem_ctrl_1.preBackEnergy            1385812320                       # Energy for precharge background per rank (pJ)
system.mem_ctrl_1.actPowerDownEnergy      98764777800                       # Energy for active power-down per rank (pJ)
system.mem_ctrl_1.prePowerDownEnergy      76625787360                       # Energy for precharge power-down per rank (pJ)
system.mem_ctrl_1.selfRefreshEnergy       93130365990                       # Energy for self refresh per rank (pJ)
system.mem_ctrl_1.totalEnergy            323572724160                       # Total energy per rank (pJ)
system.mem_ctrl_1.averagePower             395.156977                       # Core power per rank (mW)
system.mem_ctrl_1.totalIdleTime          787164393500                       # Total Idle time Per DRAM Rank
system.mem_ctrl_1.memoryStateTime::IDLE    2217546000                       # Time in different power states
system.mem_ctrl_1.memoryStateTime::REF    16733622000                       # Time in different power states
system.mem_ctrl_1.memoryStateTime::SREF  371026649250                       # Time in different power states
system.mem_ctrl_1.memoryStateTime::PRE_PDN 199549305000                       # Time in different power states
system.mem_ctrl_1.memoryStateTime::ACT    12730042250                       # Time in different power states
system.mem_ctrl_1.memoryStateTime::ACT_PDN 216588871500                       # Time in different power states
system.pwrStateResidencyTicks::UNDEFINED 818846036000                       # Cumulative time (in ticks) in various power states
system.cache.pwrStateResidencyTicks::UNDEFINED 818846036000                       # Cumulative time (in ticks) in various power states
system.cache.hits                            25695506                       # Number of hits
system.cache.misses                          32317683                       # Number of misses
system.cache.missLatency::samples            32317683                       # Ticks for misses to the cache
system.cache.missLatency::mean           23542.307999                       # Ticks for misses to the cache
system.cache.missLatency::gmean          23307.815103                       # Ticks for misses to the cache
system.cache.missLatency::stdev           8732.547173                       # Ticks for misses to the cache
system.cache.missLatency::0-65535            32213125     99.68%     99.68% # Ticks for misses to the cache
system.cache.missLatency::65536-131071          93400      0.29%     99.97% # Ticks for misses to the cache
system.cache.missLatency::131072-196607          1612      0.00%     99.97% # Ticks for misses to the cache
system.cache.missLatency::196608-262143          2624      0.01%     99.98% # Ticks for misses to the cache
system.cache.missLatency::262144-327679           360      0.00%     99.98% # Ticks for misses to the cache
system.cache.missLatency::327680-393215           578      0.00%     99.98% # Ticks for misses to the cache
system.cache.missLatency::393216-458751            16      0.00%     99.98% # Ticks for misses to the cache
system.cache.missLatency::458752-524287           225      0.00%     99.98% # Ticks for misses to the cache
system.cache.missLatency::524288-589823           234      0.00%     99.98% # Ticks for misses to the cache
system.cache.missLatency::589824-655359          5504      0.02%    100.00% # Ticks for misses to the cache
system.cache.missLatency::655360-720895             2      0.00%    100.00% # Ticks for misses to the cache
system.cache.missLatency::720896-786431             0      0.00%    100.00% # Ticks for misses to the cache
system.cache.missLatency::786432-851967             3      0.00%    100.00% # Ticks for misses to the cache
system.cache.missLatency::851968-917503             0      0.00%    100.00% # Ticks for misses to the cache
system.cache.missLatency::917504-983039             0      0.00%    100.00% # Ticks for misses to the cache
system.cache.missLatency::983040-1.04858e+06            0      0.00%    100.00% # Ticks for misses to the cache
system.cache.missLatency::total              32317683                       # Ticks for misses to the cache
system.cache.hitRatio                        0.442925                       # The ratio of hits to the total accesses to the cache
system.cpu.dtb.fetch_hits                           0                       # ITB hits
system.cpu.dtb.fetch_misses                         0                       # ITB misses
system.cpu.dtb.fetch_acv                            0                       # ITB acv
system.cpu.dtb.fetch_accesses                       0                       # ITB accesses
system.cpu.dtb.read_hits                     10001315                       # DTB read hits
system.cpu.dtb.read_misses                        516                       # DTB read misses
system.cpu.dtb.read_acv                             0                       # DTB read access violations
system.cpu.dtb.read_accesses                 10001831                       # DTB read accesses
system.cpu.dtb.write_hits                     4001460                       # DTB write hits
system.cpu.dtb.write_misses                       915                       # DTB write misses
system.cpu.dtb.write_acv                            0                       # DTB write access violations
system.cpu.dtb.write_accesses                 4002375                       # DTB write accesses
system.cpu.dtb.data_hits                     14002775                       # DTB hits
system.cpu.dtb.data_misses                       1431                       # DTB misses
system.cpu.dtb.data_acv                             0                       # DTB access violations
system.cpu.dtb.data_accesses                 14004206                       # DTB accesses
system.cpu.itb.fetch_hits                    44010415                       # ITB hits
system.cpu.itb.fetch_misses                        19                       # ITB misses
system.cpu.itb.fetch_acv                            0                       # ITB acv
system.cpu.itb.fetch_accesses                44010434                       # ITB accesses
system.cpu.itb.read_hits                            0                       # DTB read hits
system.cpu.itb.read_misses                          0                       # DTB read misses
system.cpu.itb.read_acv                             0                       # DTB read access violations
system.cpu.itb.read_accesses                        0                       # DTB read accesses
system.cpu.itb.write_hits                           0                       # DTB write hits
system.cpu.itb.write_misses                         0                       # DTB write misses
system.cpu.itb.write_acv                            0                       # DTB write access violations
system.cpu.itb.write_accesses                       0                       # DTB write accesses
system.cpu.itb.data_hits                            0                       # DTB hits
system.cpu.itb.data_misses                          0                       # DTB misses
system.cpu.itb.data_acv                             0                       # DTB access violations
system.cpu.itb.data_accesses                        0                       # DTB accesses
system.cpu.workload.numSyscalls                    10                       # Number of system calls
system.cpu.pwrStateResidencyTicks::ON    818846036000                       # Cumulative time (in ticks) in various power states
system.cpu.numCycles                        818846036                       # number of cpu cycles simulated
system.cpu.numWorkItemsStarted                      0                       # number of work items this cpu started
system.cpu.numWorkItemsCompleted                    0                       # number of work items this cpu completed
system.cpu.committedInsts                    44008983                       # Number of instructions committed
system.cpu.committedOps                      44008983                       # Number of ops (including micro ops) committed
system.cpu.num_int_alu_accesses              42010330                       # Number of integer alu accesses
system.cpu.num_fp_alu_accesses                     16                       # Number of float alu accesses
system.cpu.num_vec_alu_accesses                     0                       # Number of vector alu accesses
system.cpu.num_func_calls                         231                       # number of times a function call or return occured
system.cpu.num_conditional_control_insts      2001276                       # number of instructions that are conditional controls
system.cpu.num_int_insts                     42010330                       # number of integer instructions
system.cpu.num_fp_insts                            16                       # number of float instructions
system.cpu.num_vec_insts                            0                       # number of vector instructions
system.cpu.num_int_register_reads            53014129                       # number of times the integer registers were read
system.cpu.num_int_register_writes           36006038                       # number of times the integer registers were written
system.cpu.num_fp_register_reads                   14                       # number of times the floating registers were read
system.cpu.num_fp_register_writes                   2                       # number of times the floating registers were written
system.cpu.num_vec_register_reads                   0                       # number of times the vector registers were read
system.cpu.num_vec_register_writes                  0                       # number of times the vector registers were written
system.cpu.num_mem_refs                      14004206                       # number of memory refs
system.cpu.num_load_insts                    10001831                       # Number of load instructions
system.cpu.num_store_insts                    4002375                       # Number of store instructions
system.cpu.num_idle_cycles                          0                       # Number of idle cycles
system.cpu.num_busy_cycles                  818846036                       # Number of busy cycles
system.cpu.not_idle_fraction                        1                       # Percentage of non-idle cycles
system.cpu.idle_fraction                            0                       # Percentage of idle cycles
system.cpu.Branches                           4001572                       # Number of branches fetched
system.cpu.op_class::No_OpClass                    22      0.00%      0.00% # Class of executed instruction
system.cpu.op_class::IntAlu                  30006176     68.18%     68.18% # Class of executed instruction
system.cpu.op_class::IntMult                        8      0.00%     68.18% # Class of executed instruction
system.cpu.op_class::IntDiv                         0      0.00%     68.18% # Class of executed instruction
system.cpu.op_class::FloatAdd                       2      0.00%     68.18% # Class of executed instruction
system.cpu.op_class::FloatCmp                       0      0.00%     68.18% # Class of executed instruction
system.cpu.op_class::FloatCvt                       0      0.00%     68.18% # Class of executed instruction
system.cpu.op_class::FloatMult                      0      0.00%     68.18% # Class of executed instruction
system.cpu.op_class::FloatMultAcc                   0      0.00%     68.18% # Class of executed instruction
system.cpu.op_class::FloatDiv                       0      0.00%     68.18% # Class of executed instruction
system.cpu.op_class::FloatMisc                      0      0.00%     68.18% # Class of executed instruction
system.cpu.op_class::FloatSqrt                      0      0.00%     68.18% # Class of executed instruction
system.cpu.op_class::SimdAdd                        0      0.00%     68.18% # Class of executed instruction
system.cpu.op_class::SimdAddAcc                     0      0.00%     68.18% # Class of executed instruction
system.cpu.op_class::SimdAlu                        0      0.00%     68.18% # Class of executed instruction
system.cpu.op_class::SimdCmp                        0      0.00%     68.18% # Class of executed instruction
system.cpu.op_class::SimdCvt                        0      0.00%     68.18% # Class of executed instruction
system.cpu.op_class::SimdMisc                       0      0.00%     68.18% # Class of executed instruction
system.cpu.op_class::SimdMult                       0      0.00%     68.18% # Class of executed instruction
system.cpu.op_class::SimdMultAcc                    0      0.00%     68.18% # Class of executed instruction
system.cpu.op_class::SimdShift                      0      0.00%     68.18% # Class of executed instruction
system.cpu.op_class::SimdShiftAcc                   0      0.00%     68.18% # Class of executed instruction
system.cpu.op_class::SimdSqrt                       0      0.00%     68.18% # Class of executed instruction
system.cpu.op_class::SimdFloatAdd                   0      0.00%     68.18% # Class of executed instruction
system.cpu.op_class::SimdFloatAlu                   0      0.00%     68.18% # Class of executed instruction
system.cpu.op_class::SimdFloatCmp                   0      0.00%     68.18% # Class of executed instruction
system.cpu.op_class::SimdFloatCvt                   0      0.00%     68.18% # Class of executed instruction
system.cpu.op_class::SimdFloatDiv                   0      0.00%     68.18% # Class of executed instruction
system.cpu.op_class::SimdFloatMisc                  0      0.00%     68.18% # Class of executed instruction
system.cpu.op_class::SimdFloatMult                  0      0.00%     68.18% # Class of executed instruction
system.cpu.op_class::SimdFloatMultAcc               0      0.00%     68.18% # Class of executed instruction
system.cpu.op_class::SimdFloatSqrt                  0      0.00%     68.18% # Class of executed instruction
system.cpu.op_class::MemRead                 10001830     22.73%     90.91% # Class of executed instruction
system.cpu.op_class::MemWrite                 4002362      9.09%    100.00% # Class of executed instruction
system.cpu.op_class::FloatMemRead                   1      0.00%    100.00% # Class of executed instruction
system.cpu.op_class::FloatMemWrite                 13      0.00%    100.00% # Class of executed instruction
system.cpu.op_class::IprAccess                      0      0.00%    100.00% # Class of executed instruction
system.cpu.op_class::InstPrefetch                   0      0.00%    100.00% # Class of executed instruction
system.cpu.op_class::total                   44010414                       # Class of executed instruction
system.membus.snoop_filter.tot_requests             0                       # Total number of requests made to the snoop filter.
system.membus.snoop_filter.hit_single_requests            0                       # Number of requests hitting in the snoop filter with a single holder of the requested data.
system.membus.snoop_filter.hit_multi_requests            0                       # Number of requests hitting in the snoop filter with multiple (>1) holders of the requested data.
system.membus.snoop_filter.tot_snoops               0                       # Total number of snoops made to the snoop filter.
system.membus.snoop_filter.hit_single_snoops            0                       # Number of snoops hitting in the snoop filter with a single holder of the requested data.
system.membus.snoop_filter.hit_multi_snoops            0                       # Number of snoops hitting in the snoop filter with multiple (>1) holders of the requested data.
system.membus.pwrStateResidencyTicks::UNDEFINED 818846036000                       # Cumulative time (in ticks) in various power states
system.membus.trans_dist::ReadReq            32317683                       # Transaction distribution
system.membus.trans_dist::ReadResp           32317683                       # Transaction distribution
system.membus.trans_dist::WritebackDirty     32316659                       # Transaction distribution
system.membus.pkt_count_system.cache.mem_side::system.mem_ctrl.port     96952025                       # Packet count per connected master and slave (bytes)
system.membus.pkt_count::total               96952025                       # Packet count per connected master and slave (bytes)
system.membus.pkt_size_system.cache.mem_side::system.mem_ctrl.port   4136597888                       # Cumulative packet size per connected master and slave (bytes)
system.membus.pkt_size::total              4136597888                       # Cumulative packet size per connected master and slave (bytes)
system.membus.snoops                                0                       # Total snoops (count)
system.membus.snoopTraffic                          0                       # Total snoop traffic (bytes)
system.membus.snoop_fanout::samples          32317683                       # Request fanout histogram
system.membus.snoop_fanout::mean                    0                       # Request fanout histogram
system.membus.snoop_fanout::stdev                   0                       # Request fanout histogram
system.membus.snoop_fanout::underflows              0      0.00%      0.00% # Request fanout histogram
system.membus.snoop_fanout::0                32317683    100.00%    100.00% # Request fanout histogram
system.membus.snoop_fanout::overflows               0      0.00%    100.00% # Request fanout histogram
system.membus.snoop_fanout::min_value               0                       # Request fanout histogram
system.membus.snoop_fanout::max_value               0                       # Request fanout histogram
system.membus.snoop_fanout::total            32317683                       # Request fanout histogram
system.membus.reqLayer0.occupancy        193900978000                       # Layer occupancy (ticks)
system.membus.reqLayer0.utilization              23.7                       # Layer utilization (%)
system.membus.respLayer0.occupancy       161647187000                       # Layer occupancy (ticks)
system.membus.respLayer0.utilization             19.7                       # Layer utilization (%)

---------- End Simulation Statistics   ----------
