FIFOptrsStruct

---------- Begin Simulation Statistics ----------
sim_seconds                                  0.000008                       # Number of seconds simulated
sim_ticks                                     8074000                       # Number of ticks simulated
host_seconds                                     0.03                       # Real time elapsed on the host
sim_insts                                        7120                       # Number of instructions simulated
sim_ops                                         14005                       # Number of ops (including micro ops) simulated


 ----- L1 Data Cache

system.cpu.dcache.tags.replacements               411                       # number of replacements
system.cpu.dcache.overall_hits::cpu.data         2461                       # number of overall hits
system.cpu.dcache.overall_misses::cpu.data          443                       # number of overall misses
system.cpu.dcache.overall_accesses::cpu.data         2904                       # number of overall (read+write) accesses
system.cpu.dcache.overall_miss_rate::total     0.152548                       # miss rate for overall accesses

 ----- L1 Instruction Cache

system.cpu.icache.tags.replacements               436                       # number of replacements
system.cpu.icache.overall_hits::cpu.inst         8796                       # number of overall hits
system.cpu.icache.overall_misses::cpu.inst          468                       # number of overall misses
system.cpu.icache.overall_accesses::cpu.inst         9264                       # number of overall (read+write) accesses
system.cpu.icache.overall_miss_rate::total     0.050518                       # miss rate for overall accesses

 ----- L2 Cache

system.l2.tags.replacements                      1123                       # number of replacements
system.l2.overall_hits::total                     166                       # number of overall hits
system.l2.overall_misses::total                   745                       # number of overall misses
system.l2.overall_accesses::total                 911                       # number of overall (read+write) accesses
system.l2.overall_miss_rate::total           0.817783                       # miss rate for overall accesses
