FIFOqueens25

---------- Begin Simulation Statistics ----------
sim_seconds                                  0.014163                       # Number of seconds simulated
sim_ticks                                 14162533000                       # Number of ticks simulated
host_seconds                                     8.18                       # Real time elapsed on the host
sim_insts                                    12217933                       # Number of instructions simulated
sim_ops                                      24822555                       # Number of ops (including micro ops) simulated


 ----- L1 Data Cache

system.cpu.dcache.tags.replacements             99690                       # number of replacements
system.cpu.dcache.overall_hits::cpu.data      3037328                       # number of overall hits
system.cpu.dcache.overall_misses::cpu.data        99722                       # number of overall misses
system.cpu.dcache.overall_accesses::cpu.data      3137050                       # number of overall (read+write) accesses
system.cpu.dcache.overall_miss_rate::total     0.031788                       # miss rate for overall accesses

 ----- L1 Instruction Cache

system.cpu.icache.tags.replacements              4604                       # number of replacements
system.cpu.icache.overall_hits::cpu.inst     15715809                       # number of overall hits
system.cpu.icache.overall_misses::cpu.inst         4636                       # number of overall misses
system.cpu.icache.overall_accesses::cpu.inst     15720445                       # number of overall (read+write) accesses
system.cpu.icache.overall_miss_rate::total     0.000295                       # miss rate for overall accesses

 ----- L2 Cache

system.l2.tags.replacements                     10806                       # number of replacements
system.l2.overall_hits::total                   96677                       # number of overall hits
system.l2.overall_misses::total                  7681                       # number of overall misses
system.l2.overall_accesses::total              104358                       # number of overall (read+write) accesses
system.l2.overall_miss_rate::total           0.073602                       # miss rate for overall accesses
