FIFOprocessSpace

---------- Begin Simulation Statistics ----------
sim_seconds                                  0.000013                       # Number of seconds simulated
sim_ticks                                    13421000                       # Number of ticks simulated
host_seconds                                     0.04                       # Real time elapsed on the host
sim_insts                                       11558                       # Number of instructions simulated
sim_ops                                         22802                       # Number of ops (including micro ops) simulated


 ----- L1 Data Cache

system.cpu.dcache.tags.replacements               498                       # number of replacements
system.cpu.dcache.overall_hits::cpu.data         5156                       # number of overall hits
system.cpu.dcache.overall_misses::cpu.data          530                       # number of overall misses
system.cpu.dcache.overall_accesses::cpu.data         5686                       # number of overall (read+write) accesses
system.cpu.dcache.overall_miss_rate::total     0.093211                       # miss rate for overall accesses

 ----- L1 Instruction Cache

system.cpu.icache.tags.replacements               586                       # number of replacements
system.cpu.icache.overall_hits::cpu.inst        14981                       # number of overall hits
system.cpu.icache.overall_misses::cpu.inst          618                       # number of overall misses
system.cpu.icache.overall_accesses::cpu.inst        15599                       # number of overall (read+write) accesses
system.cpu.icache.overall_miss_rate::total     0.039618                       # miss rate for overall accesses

 ----- L2 Cache

system.l2.tags.replacements                      1405                       # number of replacements
system.l2.overall_hits::total                     203                       # number of overall hits
system.l2.overall_misses::total                   945                       # number of overall misses
system.l2.overall_accesses::total                1148                       # number of overall (read+write) accesses
system.l2.overall_miss_rate::total           0.823171                       # miss rate for overall accesses
