FIFOptrsStrings

---------- Begin Simulation Statistics ----------
sim_seconds                                  0.000009                       # Number of seconds simulated
sim_ticks                                     8963000                       # Number of ticks simulated
host_seconds                                     0.03                       # Real time elapsed on the host
sim_insts                                        7874                       # Number of instructions simulated
sim_ops                                         15392                       # Number of ops (including micro ops) simulated


 ----- L1 Data Cache

system.cpu.dcache.tags.replacements               361                       # number of replacements
system.cpu.dcache.overall_hits::cpu.data         2874                       # number of overall hits
system.cpu.dcache.overall_misses::cpu.data          393                       # number of overall misses
system.cpu.dcache.overall_accesses::cpu.data         3267                       # number of overall (read+write) accesses
system.cpu.dcache.overall_miss_rate::total     0.120294                       # miss rate for overall accesses

 ----- L1 Instruction Cache

system.cpu.icache.tags.replacements               548                       # number of replacements
system.cpu.icache.overall_hits::cpu.inst         9829                       # number of overall hits
system.cpu.icache.overall_misses::cpu.inst          580                       # number of overall misses
system.cpu.icache.overall_accesses::cpu.inst        10409                       # number of overall (read+write) accesses
system.cpu.icache.overall_miss_rate::total     0.055721                       # miss rate for overall accesses

 ----- L2 Cache

system.l2.tags.replacements                      1218                       # number of replacements
system.l2.overall_hits::total                     158                       # number of overall hits
system.l2.overall_misses::total                   815                       # number of overall misses
system.l2.overall_accesses::total                 973                       # number of overall (read+write) accesses
system.l2.overall_miss_rate::total           0.837616                       # miss rate for overall accesses
