LRUptrsStruct

---------- Begin Simulation Statistics ----------
sim_seconds                                  0.000008                       # Number of seconds simulated
sim_ticks                                     8074000                       # Number of ticks simulated
host_seconds                                     0.03                       # Real time elapsed on the host
sim_insts                                        7120                       # Number of instructions simulated
sim_ops                                         14005                       # Number of ops (including micro ops) simulated


 ----- L1 Data Cache

system.cpu.dcache.tags.replacements               390                       # number of replacements
system.cpu.dcache.overall_hits::cpu.data         2482                       # number of overall hits
system.cpu.dcache.overall_misses::cpu.data          422                       # number of overall misses
system.cpu.dcache.overall_accesses::cpu.data         2904                       # number of overall (read+write) accesses
system.cpu.dcache.overall_miss_rate::total     0.145317                       # miss rate for overall accesses

 ----- L1 Instruction Cache

system.cpu.icache.tags.replacements               434                       # number of replacements
system.cpu.icache.overall_hits::cpu.inst         8798                       # number of overall hits
system.cpu.icache.overall_misses::cpu.inst          466                       # number of overall misses
system.cpu.icache.overall_accesses::cpu.inst         9264                       # number of overall (read+write) accesses
system.cpu.icache.overall_miss_rate::total     0.050302                       # miss rate for overall accesses

 ----- L2 Cache

system.l2.tags.replacements                      1128                       # number of replacements
system.l2.overall_hits::total                     161                       # number of overall hits
system.l2.overall_misses::total                   727                       # number of overall misses
system.l2.overall_accesses::total                 888                       # number of overall (read+write) accesses
system.l2.overall_miss_rate::total           0.818694                       # miss rate for overall accesses
