RANDintTypes

---------- Begin Simulation Statistics ----------
sim_seconds                                  0.000013                       # Number of seconds simulated
sim_ticks                                    12511000                       # Number of ticks simulated
host_seconds                                     0.04                       # Real time elapsed on the host
sim_insts                                       10768                       # Number of instructions simulated
sim_ops                                         21240                       # Number of ops (including micro ops) simulated


 ----- L1 Data Cache

system.cpu.dcache.tags.replacements               501                       # number of replacements
system.cpu.dcache.overall_hits::cpu.data         3900                       # number of overall hits
system.cpu.dcache.overall_misses::cpu.data          533                       # number of overall misses
system.cpu.dcache.overall_accesses::cpu.data         4433                       # number of overall (read+write) accesses
system.cpu.dcache.overall_miss_rate::total     0.120235                       # miss rate for overall accesses

 ----- L1 Instruction Cache

system.cpu.icache.tags.replacements               953                       # number of replacements
system.cpu.icache.overall_hits::cpu.inst        13566                       # number of overall hits
system.cpu.icache.overall_misses::cpu.inst          985                       # number of overall misses
system.cpu.icache.overall_accesses::cpu.inst        14551                       # number of overall (read+write) accesses
system.cpu.icache.overall_miss_rate::total     0.067693                       # miss rate for overall accesses

 ----- L2 Cache

system.l2.tags.replacements                      1624                       # number of replacements
system.l2.overall_hits::total                     456                       # number of overall hits
system.l2.overall_misses::total                  1062                       # number of overall misses
system.l2.overall_accesses::total                1518                       # number of overall (read+write) accesses
system.l2.overall_miss_rate::total           0.699605                       # miss rate for overall accesses
