RANDrow

---------- Begin Simulation Statistics ----------
sim_seconds                                  0.017945                       # Number of seconds simulated
sim_ticks                                 17944541000                       # Number of ticks simulated
host_seconds                                    27.16                       # Real time elapsed on the host
sim_insts                                    15227129                       # Number of instructions simulated
sim_ops                                      30215384                       # Number of ops (including micro ops) simulated


 ----- L1 Data Cache

system.cpu.dcache.tags.replacements            449043                       # number of replacements
system.cpu.dcache.overall_hits::cpu.data      5938757                       # number of overall hits
system.cpu.dcache.overall_misses::cpu.data       449075                       # number of overall misses
system.cpu.dcache.overall_accesses::cpu.data      6387832                       # number of overall (read+write) accesses
system.cpu.dcache.overall_miss_rate::total     0.070302                       # miss rate for overall accesses

 ----- L1 Instruction Cache

system.cpu.icache.tags.replacements           1705161                       # number of replacements
system.cpu.icache.overall_hits::cpu.inst     19195635                       # number of overall hits
system.cpu.icache.overall_misses::cpu.inst      1705193                       # number of overall misses
system.cpu.icache.overall_accesses::cpu.inst     20900828                       # number of overall (read+write) accesses
system.cpu.icache.overall_miss_rate::total     0.081585                       # miss rate for overall accesses

 ----- L2 Cache

system.l2.tags.replacements                   1857835                       # number of replacements
system.l2.overall_hits::total                  987857                       # number of overall hits
system.l2.overall_misses::total               1166411                       # number of overall misses
system.l2.overall_accesses::total             2154268                       # number of overall (read+write) accesses
system.l2.overall_miss_rate::total           0.541442                       # miss rate for overall accesses
