RANDtightLoop

---------- Begin Simulation Statistics ----------
sim_seconds                                  0.029010                       # Number of seconds simulated
sim_ticks                                 29009559000                       # Number of ticks simulated
host_seconds                                    22.31                       # Real time elapsed on the host
sim_insts                                    20008370                       # Number of instructions simulated
sim_ops                                      45016440                       # Number of ops (including micro ops) simulated


 ----- L1 Data Cache

system.cpu.dcache.tags.replacements             66886                       # number of replacements
system.cpu.dcache.overall_hits::cpu.data     16936430                       # number of overall hits
system.cpu.dcache.overall_misses::cpu.data        66918                       # number of overall misses
system.cpu.dcache.overall_accesses::cpu.data     17003348                       # number of overall (read+write) accesses
system.cpu.dcache.overall_miss_rate::total     0.003936                       # miss rate for overall accesses

 ----- L1 Instruction Cache

system.cpu.icache.tags.replacements               657                       # number of replacements
system.cpu.icache.overall_hits::cpu.inst     33010360                       # number of overall hits
system.cpu.icache.overall_misses::cpu.inst          689                       # number of overall misses
system.cpu.icache.overall_accesses::cpu.inst     33011049                       # number of overall (read+write) accesses
system.cpu.icache.overall_miss_rate::total     0.000021                       # miss rate for overall accesses

 ----- L2 Cache

system.l2.tags.replacements                     95604                       # number of replacements
system.l2.overall_hits::total                    4186                       # number of overall hits
system.l2.overall_misses::total                 63421                       # number of overall misses
system.l2.overall_accesses::total               67607                       # number of overall (read+write) accesses
system.l2.overall_miss_rate::total           0.938083                       # miss rate for overall accesses
