RANDptrsStrings

---------- Begin Simulation Statistics ----------
sim_seconds                                  0.000009                       # Number of seconds simulated
sim_ticks                                     8963000                       # Number of ticks simulated
host_seconds                                     0.03                       # Real time elapsed on the host
sim_insts                                        7874                       # Number of instructions simulated
sim_ops                                         15392                       # Number of ops (including micro ops) simulated


 ----- L1 Data Cache

system.cpu.dcache.tags.replacements               396                       # number of replacements
system.cpu.dcache.overall_hits::cpu.data         2839                       # number of overall hits
system.cpu.dcache.overall_misses::cpu.data          428                       # number of overall misses
system.cpu.dcache.overall_accesses::cpu.data         3267                       # number of overall (read+write) accesses
system.cpu.dcache.overall_miss_rate::total     0.131007                       # miss rate for overall accesses

 ----- L1 Instruction Cache

system.cpu.icache.tags.replacements               538                       # number of replacements
system.cpu.icache.overall_hits::cpu.inst         9839                       # number of overall hits
system.cpu.icache.overall_misses::cpu.inst          570                       # number of overall misses
system.cpu.icache.overall_accesses::cpu.inst        10409                       # number of overall (read+write) accesses
system.cpu.icache.overall_miss_rate::total     0.054760                       # miss rate for overall accesses

 ----- L2 Cache

system.l2.tags.replacements                      1173                       # number of replacements
system.l2.overall_hits::total                     199                       # number of overall hits
system.l2.overall_misses::total                   799                       # number of overall misses
system.l2.overall_accesses::total                 998                       # number of overall (read+write) accesses
system.l2.overall_miss_rate::total           0.800601                       # miss rate for overall accesses
