RANDqueens12

---------- Begin Simulation Statistics ----------
sim_seconds                                  0.000234                       # Number of seconds simulated
sim_ticks                                   233820000                       # Number of ticks simulated
host_seconds                                     0.24                       # Real time elapsed on the host
sim_insts                                      208020                       # Number of instructions simulated
sim_ops                                        402236                       # Number of ops (including micro ops) simulated


 ----- L1 Data Cache

system.cpu.dcache.tags.replacements              7278                       # number of replacements
system.cpu.dcache.overall_hits::cpu.data        66736                       # number of overall hits
system.cpu.dcache.overall_misses::cpu.data         7310                       # number of overall misses
system.cpu.dcache.overall_accesses::cpu.data        74046                       # number of overall (read+write) accesses
system.cpu.dcache.overall_miss_rate::total     0.098722                       # miss rate for overall accesses

 ----- L1 Instruction Cache

system.cpu.icache.tags.replacements              4130                       # number of replacements
system.cpu.icache.overall_hits::cpu.inst       269263                       # number of overall hits
system.cpu.icache.overall_misses::cpu.inst         4162                       # number of overall misses
system.cpu.icache.overall_accesses::cpu.inst       273425                       # number of overall (read+write) accesses
system.cpu.icache.overall_miss_rate::total     0.015222                       # miss rate for overall accesses

 ----- L2 Cache

system.l2.tags.replacements                     10013                       # number of replacements
system.l2.overall_hits::total                    4209                       # number of overall hits
system.l2.overall_misses::total                  7263                       # number of overall misses
system.l2.overall_accesses::total               11472                       # number of overall (read+write) accesses
system.l2.overall_miss_rate::total           0.633107                       # miss rate for overall accesses
