processSpaceFifo32kB

---------- Begin Simulation Statistics ----------
sim_seconds                                  0.000049                       # Number of seconds simulated
sim_ticks                                    49397000                       # Number of ticks simulated
final_tick                                   49397000                       # Number of ticks from beginning of simulation (restored from checkpoints and never reset)
sim_freq                                 1000000000000                       # Frequency of simulated ticks
host_inst_rate                                 563908                       # Simulator instruction rate (inst/s)
host_op_rate                                   563670                       # Simulator op (including micro ops) rate (op/s)
host_tick_rate                             2321833137                       # Simulator tick rate (ticks/s)
host_mem_usage                                6699156                       # Number of bytes of host memory used
host_seconds                                     0.02                       # Real time elapsed on the host
sim_insts                                       11987                       # Number of instructions simulated
sim_ops                                         11987                       # Number of ops (including micro ops) simulated



system.cache.pwrStateResidencyTicks::UNDEFINED     49397000                       # Cumulative time (in ticks) in various power states
system.cache.hits                               16210                       # Number of hits
system.cache.misses                               529                       # Number of misses
system.cache.missLatency::samples                 529                       # Ticks for misses to the cache
system.cache.missLatency::mean           61735.349716                       # Ticks for misses to the cache
system.cache.missLatency::gmean          59343.540159                       # Ticks for misses to the cache
system.cache.missLatency::stdev          27552.530715                       # Ticks for misses to the cache
system.cache.missLatency::0-32767                   4      0.76%      0.76% # Ticks for misses to the cache
system.cache.missLatency::32768-65535             417     78.83%     79.58% # Ticks for misses to the cache
system.cache.missLatency::65536-98303             102     19.28%     98.87% # Ticks for misses to the cache
system.cache.missLatency::98304-131071              0      0.00%     98.87% # Ticks for misses to the cache
system.cache.missLatency::131072-163839             0      0.00%     98.87% # Ticks for misses to the cache
system.cache.missLatency::163840-196607             0      0.00%     98.87% # Ticks for misses to the cache
system.cache.missLatency::196608-229375             1      0.19%     99.05% # Ticks for misses to the cache
system.cache.missLatency::229376-262143             0      0.00%     99.05% # Ticks for misses to the cache
system.cache.missLatency::262144-294911             1      0.19%     99.24% # Ticks for misses to the cache
system.cache.missLatency::294912-327679             2      0.38%     99.62% # Ticks for misses to the cache
system.cache.missLatency::327680-360447             2      0.38%    100.00% # Ticks for misses to the cache
system.cache.missLatency::360448-393215             0      0.00%    100.00% # Ticks for misses to the cache
system.cache.missLatency::393216-425983             0      0.00%    100.00% # Ticks for misses to the cache
system.cache.missLatency::425984-458751             0      0.00%    100.00% # Ticks for misses to the cache
system.cache.missLatency::458752-491519             0      0.00%    100.00% # Ticks for misses to the cache
system.cache.missLatency::491520-524287             0      0.00%    100.00% # Ticks for misses to the cache
system.cache.missLatency::total                   529                       # Ticks for misses to the cache
system.cache.hitRatio                        0.968397                       # The ratio of hits to the total accesses to the cache
system.membus.pkt_count_system.cache.mem_side::system.mem_ctrl.port         1075                       # Packet count per connected master and slave (bytes)
system.membus.pkt_size_system.cache.mem_side::system.mem_ctrl.port        34944                       # Cumulative packet size per connected master and slave (bytes)
