arrLoopSEQ32

---------- Begin Simulation Statistics ----------
sim_seconds                                  0.828341                       # Number of seconds simulated
sim_ticks                                828340622000                       # Number of ticks simulated
final_tick                               828340622000                       # Number of ticks from beginning of simulation (restored from checkpoints and never reset)
sim_freq                                 1000000000000                       # Frequency of simulated ticks
host_inst_rate                                  13809                       # Simulator instruction rate (inst/s)
host_op_rate                                    13809                       # Simulator op (including micro ops) rate (op/s)
host_tick_rate                              259917852                       # Simulator tick rate (ticks/s)
host_mem_usage                                8997372                       # Number of bytes of host memory used
host_seconds                                  3186.93                       # Real time elapsed on the host
sim_insts                                    44008983                       # Number of instructions simulated
sim_ops                                      44008983                       # Number of ops (including micro ops) simulated



system.cache.pwrStateResidencyTicks::UNDEFINED 828340622000                       # Cumulative time (in ticks) in various power states
system.cache.hits                            25294334                       # Number of hits
system.cache.misses                          32718855                       # Number of misses
system.cache.missLatency::samples            32718855                       # Ticks for misses to the cache
system.cache.missLatency::mean           23543.838346                       # Ticks for misses to the cache
system.cache.missLatency::gmean          23313.278359                       # Ticks for misses to the cache
system.cache.missLatency::stdev           8559.991556                       # Ticks for misses to the cache
system.cache.missLatency::0-65535            32613492     99.68%     99.68% # Ticks for misses to the cache
system.cache.missLatency::65536-131071          93428      0.29%     99.96% # Ticks for misses to the cache
system.cache.missLatency::131072-196607          1725      0.01%     99.97% # Ticks for misses to the cache
system.cache.missLatency::196608-262143          3914      0.01%     99.98% # Ticks for misses to the cache
system.cache.missLatency::262144-327679           298      0.00%     99.98% # Ticks for misses to the cache
system.cache.missLatency::327680-393215           353      0.00%     99.98% # Ticks for misses to the cache
system.cache.missLatency::393216-458751            14      0.00%     99.98% # Ticks for misses to the cache
system.cache.missLatency::458752-524287           135      0.00%     99.98% # Ticks for misses to the cache
system.cache.missLatency::524288-589823           160      0.00%     99.98% # Ticks for misses to the cache
system.cache.missLatency::589824-655359          5330      0.02%    100.00% # Ticks for misses to the cache
system.cache.missLatency::655360-720895             1      0.00%    100.00% # Ticks for misses to the cache
system.cache.missLatency::720896-786431             5      0.00%    100.00% # Ticks for misses to the cache
system.cache.missLatency::786432-851967             0      0.00%    100.00% # Ticks for misses to the cache
system.cache.missLatency::851968-917503             0      0.00%    100.00% # Ticks for misses to the cache
system.cache.missLatency::917504-983039             0      0.00%    100.00% # Ticks for misses to the cache
system.cache.missLatency::983040-1.04858e+06            0      0.00%    100.00% # Ticks for misses to the cache
system.cache.missLatency::total              32718855                       # Ticks for misses to the cache
system.cache.hitRatio                        0.436010                       # The ratio of hits to the total accesses to the cache
system.membus.pkt_count_system.cache.mem_side::system.mem_ctrl.port     98156053                       # Packet count per connected master and slave (bytes)
system.membus.pkt_size_system.cache.mem_side::system.mem_ctrl.port   4187980672                       # Cumulative packet size per connected master and slave (bytes)
