arrLoopFIFO32

---------- Begin Simulation Statistics ----------
sim_seconds                                  0.834692                       # Number of seconds simulated
sim_ticks                                834692227000                       # Number of ticks simulated
final_tick                               834692227000                       # Number of ticks from beginning of simulation (restored from checkpoints and never reset)
sim_freq                                 1000000000000                       # Frequency of simulated ticks
host_inst_rate                                  17547                       # Simulator instruction rate (inst/s)
host_op_rate                                    17547                       # Simulator op (including micro ops) rate (op/s)
host_tick_rate                              332812517                       # Simulator tick rate (ticks/s)
host_mem_usage                                8486396                       # Number of bytes of host memory used
host_seconds                                  2508.00                       # Real time elapsed on the host
sim_insts                                    44008983                       # Number of instructions simulated
sim_ops                                      44008983                       # Number of ops (including micro ops) simulated



system.cache.pwrStateResidencyTicks::UNDEFINED 834692227000                       # Cumulative time (in ticks) in various power states
system.cache.hits                            25037492                       # Number of hits
system.cache.misses                          32975697                       # Number of misses
system.cache.missLatency::samples            32975697                       # Ticks for misses to the cache
system.cache.missLatency::mean           23553.074193                       # Ticks for misses to the cache
system.cache.missLatency::gmean          23322.385744                       # Ticks for misses to the cache
system.cache.missLatency::stdev           8435.510888                       # Ticks for misses to the cache
system.cache.missLatency::0-65535            32869955     99.68%     99.68% # Ticks for misses to the cache
system.cache.missLatency::65536-131071          92067      0.28%     99.96% # Ticks for misses to the cache
system.cache.missLatency::131072-196607          1533      0.00%     99.96% # Ticks for misses to the cache
system.cache.missLatency::196608-262143          6577      0.02%     99.98% # Ticks for misses to the cache
system.cache.missLatency::262144-327679           252      0.00%     99.98% # Ticks for misses to the cache
system.cache.missLatency::327680-393215           128      0.00%     99.98% # Ticks for misses to the cache
system.cache.missLatency::393216-458751             6      0.00%     99.98% # Ticks for misses to the cache
system.cache.missLatency::458752-524287            33      0.00%     99.98% # Ticks for misses to the cache
system.cache.missLatency::524288-589823             2      0.00%     99.98% # Ticks for misses to the cache
system.cache.missLatency::589824-655359          5144      0.02%    100.00% # Ticks for misses to the cache
system.cache.missLatency::655360-720895             0      0.00%    100.00% # Ticks for misses to the cache
system.cache.missLatency::720896-786431             0      0.00%    100.00% # Ticks for misses to the cache
system.cache.missLatency::786432-851967             0      0.00%    100.00% # Ticks for misses to the cache
system.cache.missLatency::851968-917503             0      0.00%    100.00% # Ticks for misses to the cache
system.cache.missLatency::917504-983039             0      0.00%    100.00% # Ticks for misses to the cache
system.cache.missLatency::983040-1.04858e+06            0      0.00%    100.00% # Ticks for misses to the cache
system.cache.missLatency::total              32975697                       # Ticks for misses to the cache
system.cache.hitRatio                        0.431583                       # The ratio of hits to the total accesses to the cache
system.membus.pkt_count_system.cache.mem_side::system.mem_ctrl.port     98926579                       # Packet count per connected master and slave (bytes)
system.membus.pkt_size_system.cache.mem_side::system.mem_ctrl.port   4220856448                       # Cumulative packet size per connected master and slave (bytes)
