factorialSEQ32

---------- Begin Simulation Statistics ----------
sim_seconds                                  0.000049                       # Number of seconds simulated
sim_ticks                                    48991000                       # Number of ticks simulated
final_tick                                   48991000                       # Number of ticks from beginning of simulation (restored from checkpoints and never reset)
sim_freq                                 1000000000000                       # Frequency of simulated ticks
host_inst_rate                                 785057                       # Simulator instruction rate (inst/s)
host_op_rate                                   783687                       # Simulator op (including micro ops) rate (op/s)
host_tick_rate                             3710877140                       # Simulator tick rate (ticks/s)
host_mem_usage                                8485368                       # Number of bytes of host memory used
host_seconds                                     0.01                       # Real time elapsed on the host
sim_insts                                       10329                       # Number of instructions simulated
sim_ops                                         10329                       # Number of ops (including micro ops) simulated



system.cache.pwrStateResidencyTicks::UNDEFINED     48991000                       # Cumulative time (in ticks) in various power states
system.cache.hits                               12990                       # Number of hits
system.cache.misses                               575                       # Number of misses
system.cache.missLatency::samples                 575                       # Ticks for misses to the cache
system.cache.missLatency::mean           61610.434783                       # Ticks for misses to the cache
system.cache.missLatency::gmean          59165.341170                       # Ticks for misses to the cache
system.cache.missLatency::stdev          28628.180404                       # Ticks for misses to the cache
system.cache.missLatency::0-32767                   4      0.70%      0.70% # Ticks for misses to the cache
system.cache.missLatency::32768-65535             454     78.96%     79.65% # Ticks for misses to the cache
system.cache.missLatency::65536-98303             109     18.96%     98.61% # Ticks for misses to the cache
system.cache.missLatency::98304-131071              1      0.17%     98.78% # Ticks for misses to the cache
system.cache.missLatency::131072-163839             1      0.17%     98.96% # Ticks for misses to the cache
system.cache.missLatency::163840-196607             0      0.00%     98.96% # Ticks for misses to the cache
system.cache.missLatency::196608-229375             0      0.00%     98.96% # Ticks for misses to the cache
system.cache.missLatency::229376-262143             0      0.00%     98.96% # Ticks for misses to the cache
system.cache.missLatency::262144-294911             1      0.17%     99.13% # Ticks for misses to the cache
system.cache.missLatency::294912-327679             2      0.35%     99.48% # Ticks for misses to the cache
system.cache.missLatency::327680-360447             3      0.52%    100.00% # Ticks for misses to the cache
system.cache.missLatency::360448-393215             0      0.00%    100.00% # Ticks for misses to the cache
system.cache.missLatency::393216-425983             0      0.00%    100.00% # Ticks for misses to the cache
system.cache.missLatency::425984-458751             0      0.00%    100.00% # Ticks for misses to the cache
system.cache.missLatency::458752-491519             0      0.00%    100.00% # Ticks for misses to the cache
system.cache.missLatency::491520-524287             0      0.00%    100.00% # Ticks for misses to the cache
system.cache.missLatency::total                   575                       # Ticks for misses to the cache
system.cache.hitRatio                        0.957612                       # The ratio of hits to the total accesses to the cache
system.membus.pkt_count_system.cache.mem_side::system.mem_ctrl.port         1213                       # Packet count per connected master and slave (bytes)
system.membus.pkt_size_system.cache.mem_side::system.mem_ctrl.port        40832                       # Cumulative packet size per connected master and slave (bytes)
