factorialFIFO8

---------- Begin Simulation Statistics ----------
sim_seconds                                  0.000183                       # Number of seconds simulated
sim_ticks                                   183281000                       # Number of ticks simulated
final_tick                                  183281000                       # Number of ticks from beginning of simulation (restored from checkpoints and never reset)
sim_freq                                 1000000000000                       # Frequency of simulated ticks
host_inst_rate                                 184065                       # Simulator instruction rate (inst/s)
host_op_rate                                   183823                       # Simulator op (including micro ops) rate (op/s)
host_tick_rate                             3258792362                       # Simulator tick rate (ticks/s)
host_mem_usage                                8485376                       # Number of bytes of host memory used
host_seconds                                     0.06                       # Real time elapsed on the host
sim_insts                                       10329                       # Number of instructions simulated
sim_ops                                         10329                       # Number of ops (including micro ops) simulated



system.cache.pwrStateResidencyTicks::UNDEFINED    183281000                       # Cumulative time (in ticks) in various power states
system.cache.hits                                8106                       # Number of hits
system.cache.misses                              5459                       # Number of misses
system.cache.missLatency::samples                5459                       # Ticks for misses to the cache
system.cache.missLatency::mean           31089.210478                       # Ticks for misses to the cache
system.cache.missLatency::gmean          27771.510130                       # Ticks for misses to the cache
system.cache.missLatency::stdev          22968.136174                       # Ticks for misses to the cache
system.cache.missLatency::0-65535                5212     95.48%     95.48% # Ticks for misses to the cache
system.cache.missLatency::65536-131071            208      3.81%     99.29% # Ticks for misses to the cache
system.cache.missLatency::131072-196607            21      0.38%     99.67% # Ticks for misses to the cache
system.cache.missLatency::196608-262143             5      0.09%     99.76% # Ticks for misses to the cache
system.cache.missLatency::262144-327679            11      0.20%     99.96% # Ticks for misses to the cache
system.cache.missLatency::327680-393215             1      0.02%     99.98% # Ticks for misses to the cache
system.cache.missLatency::393216-458751             0      0.00%     99.98% # Ticks for misses to the cache
system.cache.missLatency::458752-524287             0      0.00%     99.98% # Ticks for misses to the cache
system.cache.missLatency::524288-589823             0      0.00%     99.98% # Ticks for misses to the cache
system.cache.missLatency::589824-655359             1      0.02%    100.00% # Ticks for misses to the cache
system.cache.missLatency::655360-720895             0      0.00%    100.00% # Ticks for misses to the cache
system.cache.missLatency::720896-786431             0      0.00%    100.00% # Ticks for misses to the cache
system.cache.missLatency::786432-851967             0      0.00%    100.00% # Ticks for misses to the cache
system.cache.missLatency::851968-917503             0      0.00%    100.00% # Ticks for misses to the cache
system.cache.missLatency::917504-983039             0      0.00%    100.00% # Ticks for misses to the cache
system.cache.missLatency::983040-1.04858e+06            0      0.00%    100.00% # Ticks for misses to the cache
system.cache.missLatency::total                  5459                       # Ticks for misses to the cache
system.cache.hitRatio                        0.597567                       # The ratio of hits to the total accesses to the cache
system.membus.pkt_count_system.cache.mem_side::system.mem_ctrl.port        16249                       # Packet count per connected master and slave (bytes)
system.membus.pkt_size_system.cache.mem_side::system.mem_ctrl.port       690560                       # Cumulative packet size per connected master and slave (bytes)
