helloFIFO8

---------- Begin Simulation Statistics ----------
sim_seconds                                  0.000108                       # Number of seconds simulated
sim_ticks                                   108069000                       # Number of ticks simulated
final_tick                                  108069000                       # Number of ticks from beginning of simulation (restored from checkpoints and never reset)
sim_freq                                 1000000000000                       # Frequency of simulated ticks
host_inst_rate                                 326569                       # Simulator instruction rate (inst/s)
host_op_rate                                   326189                       # Simulator op (including micro ops) rate (op/s)
host_tick_rate                             5456652361                       # Simulator tick rate (ticks/s)
host_mem_usage                                8484292                       # Number of bytes of host memory used
host_seconds                                     0.02                       # Real time elapsed on the host
sim_insts                                        6453                       # Number of instructions simulated
sim_ops                                          6453                       # Number of ops (including micro ops) simulated



system.cache.pwrStateResidencyTicks::UNDEFINED    108069000                       # Cumulative time (in ticks) in various power states
system.cache.hits                                5427                       # Number of hits
system.cache.misses                              3091                       # Number of misses
system.cache.missLatency::samples                3091                       # Ticks for misses to the cache
system.cache.missLatency::mean           32206.729214                       # Ticks for misses to the cache
system.cache.missLatency::gmean          28452.482730                       # Ticks for misses to the cache
system.cache.missLatency::stdev          26287.721549                       # Ticks for misses to the cache
system.cache.missLatency::0-65535                2936     94.99%     94.99% # Ticks for misses to the cache
system.cache.missLatency::65536-131071            135      4.37%     99.35% # Ticks for misses to the cache
system.cache.missLatency::131072-196607            10      0.32%     99.68% # Ticks for misses to the cache
system.cache.missLatency::196608-262143             2      0.06%     99.74% # Ticks for misses to the cache
system.cache.missLatency::262144-327679             5      0.16%     99.90% # Ticks for misses to the cache
system.cache.missLatency::327680-393215             1      0.03%     99.94% # Ticks for misses to the cache
system.cache.missLatency::393216-458751             0      0.00%     99.94% # Ticks for misses to the cache
system.cache.missLatency::458752-524287             0      0.00%     99.94% # Ticks for misses to the cache
system.cache.missLatency::524288-589823             0      0.00%     99.94% # Ticks for misses to the cache
system.cache.missLatency::589824-655359             2      0.06%    100.00% # Ticks for misses to the cache
system.cache.missLatency::655360-720895             0      0.00%    100.00% # Ticks for misses to the cache
system.cache.missLatency::720896-786431             0      0.00%    100.00% # Ticks for misses to the cache
system.cache.missLatency::786432-851967             0      0.00%    100.00% # Ticks for misses to the cache
system.cache.missLatency::851968-917503             0      0.00%    100.00% # Ticks for misses to the cache
system.cache.missLatency::917504-983039             0      0.00%    100.00% # Ticks for misses to the cache
system.cache.missLatency::983040-1.04858e+06            0      0.00%    100.00% # Ticks for misses to the cache
system.cache.missLatency::total                  3091                       # Ticks for misses to the cache
system.cache.hitRatio                        0.637121                       # The ratio of hits to the total accesses to the cache
system.membus.pkt_count_system.cache.mem_side::system.mem_ctrl.port         9145                       # Packet count per connected master and slave (bytes)
system.membus.pkt_size_system.cache.mem_side::system.mem_ctrl.port       387456                       # Cumulative packet size per connected master and slave (bytes)
