helloLRU8

---------- Begin Simulation Statistics ----------
sim_seconds                                  0.000110                       # Number of seconds simulated
sim_ticks                                   110257000                       # Number of ticks simulated
final_tick                                  110257000                       # Number of ticks from beginning of simulation (restored from checkpoints and never reset)
sim_freq                                 1000000000000                       # Frequency of simulated ticks
host_inst_rate                                 429456                       # Simulator instruction rate (inst/s)
host_op_rate                                   428685                       # Simulator op (including micro ops) rate (op/s)
host_tick_rate                             7312441968                       # Simulator tick rate (ticks/s)
host_mem_usage                                8484292                       # Number of bytes of host memory used
host_seconds                                     0.02                       # Real time elapsed on the host
sim_insts                                        6453                       # Number of instructions simulated
sim_ops                                          6453                       # Number of ops (including micro ops) simulated



system.cache.pwrStateResidencyTicks::UNDEFINED    110257000                       # Cumulative time (in ticks) in various power states
system.cache.hits                                5428                       # Number of hits
system.cache.misses                              3090                       # Number of misses
system.cache.missLatency::samples                3090                       # Ticks for misses to the cache
system.cache.missLatency::mean           32925.242718                       # Ticks for misses to the cache
system.cache.missLatency::gmean          28789.180694                       # Ticks for misses to the cache
system.cache.missLatency::stdev          29057.648749                       # Ticks for misses to the cache
system.cache.missLatency::0-65535                2937     95.05%     95.05% # Ticks for misses to the cache
system.cache.missLatency::65536-131071            126      4.08%     99.13% # Ticks for misses to the cache
system.cache.missLatency::131072-196607            13      0.42%     99.55% # Ticks for misses to the cache
system.cache.missLatency::196608-262143             3      0.10%     99.64% # Ticks for misses to the cache
system.cache.missLatency::262144-327679             7      0.23%     99.87% # Ticks for misses to the cache
system.cache.missLatency::327680-393215             1      0.03%     99.90% # Ticks for misses to the cache
system.cache.missLatency::393216-458751             0      0.00%     99.90% # Ticks for misses to the cache
system.cache.missLatency::458752-524287             0      0.00%     99.90% # Ticks for misses to the cache
system.cache.missLatency::524288-589823             0      0.00%     99.90% # Ticks for misses to the cache
system.cache.missLatency::589824-655359             3      0.10%    100.00% # Ticks for misses to the cache
system.cache.missLatency::655360-720895             0      0.00%    100.00% # Ticks for misses to the cache
system.cache.missLatency::720896-786431             0      0.00%    100.00% # Ticks for misses to the cache
system.cache.missLatency::786432-851967             0      0.00%    100.00% # Ticks for misses to the cache
system.cache.missLatency::851968-917503             0      0.00%    100.00% # Ticks for misses to the cache
system.cache.missLatency::917504-983039             0      0.00%    100.00% # Ticks for misses to the cache
system.cache.missLatency::983040-1.04858e+06            0      0.00%    100.00% # Ticks for misses to the cache
system.cache.missLatency::total                  3090                       # Ticks for misses to the cache
system.cache.hitRatio                        0.637239                       # The ratio of hits to the total accesses to the cache
system.membus.pkt_count_system.cache.mem_side::system.mem_ctrl.port         9142                       # Packet count per connected master and slave (bytes)
system.membus.pkt_size_system.cache.mem_side::system.mem_ctrl.port       387328                       # Cumulative packet size per connected master and slave (bytes)
