ptrsStringsSEQ8

---------- Begin Simulation Statistics ----------
sim_seconds                                  0.000042                       # Number of seconds simulated
sim_ticks                                    41809000                       # Number of ticks simulated
final_tick                                   41809000                       # Number of ticks from beginning of simulation (restored from checkpoints and never reset)
sim_freq                                 1000000000000                       # Frequency of simulated ticks
host_inst_rate                                 799252                       # Simulator instruction rate (inst/s)
host_op_rate                                   797508                       # Simulator op (including micro ops) rate (op/s)
host_tick_rate                             3795642306                       # Simulator tick rate (ticks/s)
host_mem_usage                                8484352                       # Number of bytes of host memory used
host_seconds                                     0.01                       # Real time elapsed on the host
sim_insts                                        8767                       # Number of instructions simulated
sim_ops                                          8767                       # Number of ops (including micro ops) simulated



system.cache.pwrStateResidencyTicks::UNDEFINED     41809000                       # Cumulative time (in ticks) in various power states
system.cache.hits                               11211                       # Number of hits
system.cache.misses                               487                       # Number of misses
system.cache.missLatency::samples                 487                       # Ticks for misses to the cache
system.cache.missLatency::mean           61829.568789                       # Ticks for misses to the cache
system.cache.missLatency::gmean          59669.671127                       # Ticks for misses to the cache
system.cache.missLatency::stdev          27112.206042                       # Ticks for misses to the cache
system.cache.missLatency::0-32767                   0      0.00%      0.00% # Ticks for misses to the cache
system.cache.missLatency::32768-65535             388     79.67%     79.67% # Ticks for misses to the cache
system.cache.missLatency::65536-98303              94     19.30%     98.97% # Ticks for misses to the cache
system.cache.missLatency::98304-131071              0      0.00%     98.97% # Ticks for misses to the cache
system.cache.missLatency::131072-163839             0      0.00%     98.97% # Ticks for misses to the cache
system.cache.missLatency::163840-196607             0      0.00%     98.97% # Ticks for misses to the cache
system.cache.missLatency::196608-229375             0      0.00%     98.97% # Ticks for misses to the cache
system.cache.missLatency::229376-262143             0      0.00%     98.97% # Ticks for misses to the cache
system.cache.missLatency::262144-294911             2      0.41%     99.38% # Ticks for misses to the cache
system.cache.missLatency::294912-327679             1      0.21%     99.59% # Ticks for misses to the cache
system.cache.missLatency::327680-360447             2      0.41%    100.00% # Ticks for misses to the cache
system.cache.missLatency::360448-393215             0      0.00%    100.00% # Ticks for misses to the cache
system.cache.missLatency::393216-425983             0      0.00%    100.00% # Ticks for misses to the cache
system.cache.missLatency::425984-458751             0      0.00%    100.00% # Ticks for misses to the cache
system.cache.missLatency::458752-491519             0      0.00%    100.00% # Ticks for misses to the cache
system.cache.missLatency::491520-524287             0      0.00%    100.00% # Ticks for misses to the cache
system.cache.missLatency::total                   487                       # Ticks for misses to the cache
system.cache.hitRatio                        0.958369                       # The ratio of hits to the total accesses to the cache
system.membus.pkt_count_system.cache.mem_side::system.mem_ctrl.port          974                       # Packet count per connected master and slave (bytes)
system.membus.pkt_size_system.cache.mem_side::system.mem_ctrl.port        31168                       # Cumulative packet size per connected master and slave (bytes)
