processSpaceLru8kB

---------- Begin Simulation Statistics ----------
sim_seconds                                  0.000251                       # Number of seconds simulated
sim_ticks                                   251148000                       # Number of ticks simulated
final_tick                                  251148000                       # Number of ticks from beginning of simulation (restored from checkpoints and never reset)
sim_freq                                 1000000000000                       # Frequency of simulated ticks
host_inst_rate                                 254037                       # Simulator instruction rate (inst/s)
host_op_rate                                   253983                       # Simulator op (including micro ops) rate (op/s)
host_tick_rate                             5320368605                       # Simulator tick rate (ticks/s)
host_mem_usage                                6715540                       # Number of bytes of host memory used
host_seconds                                     0.05                       # Real time elapsed on the host
sim_insts                                       11987                       # Number of instructions simulated
sim_ops                                         11987                       # Number of ops (including micro ops) simulated



system.cache.pwrStateResidencyTicks::UNDEFINED    251148000                       # Cumulative time (in ticks) in various power states
system.cache.hits                                8609                       # Number of hits
system.cache.misses                              8130                       # Number of misses
system.cache.missLatency::samples                8130                       # Ticks for misses to the cache
system.cache.missLatency::mean           28832.595326                       # Ticks for misses to the cache
system.cache.missLatency::gmean          26406.406266                       # Ticks for misses to the cache
system.cache.missLatency::stdev          21176.484457                       # Ticks for misses to the cache
system.cache.missLatency::0-65535                7891     97.06%     97.06% # Ticks for misses to the cache
system.cache.missLatency::65536-131071            202      2.48%     99.54% # Ticks for misses to the cache
system.cache.missLatency::131072-196607            19      0.23%     99.78% # Ticks for misses to the cache
system.cache.missLatency::196608-262143             5      0.06%     99.84% # Ticks for misses to the cache
system.cache.missLatency::262144-327679             8      0.10%     99.94% # Ticks for misses to the cache
system.cache.missLatency::327680-393215             2      0.02%     99.96% # Ticks for misses to the cache
system.cache.missLatency::393216-458751             0      0.00%     99.96% # Ticks for misses to the cache
system.cache.missLatency::458752-524287             0      0.00%     99.96% # Ticks for misses to the cache
system.cache.missLatency::524288-589823             0      0.00%     99.96% # Ticks for misses to the cache
system.cache.missLatency::589824-655359             3      0.04%    100.00% # Ticks for misses to the cache
system.cache.missLatency::655360-720895             0      0.00%    100.00% # Ticks for misses to the cache
system.cache.missLatency::720896-786431             0      0.00%    100.00% # Ticks for misses to the cache
system.cache.missLatency::786432-851967             0      0.00%    100.00% # Ticks for misses to the cache
system.cache.missLatency::851968-917503             0      0.00%    100.00% # Ticks for misses to the cache
system.cache.missLatency::917504-983039             0      0.00%    100.00% # Ticks for misses to the cache
system.cache.missLatency::983040-1.04858e+06            0      0.00%    100.00% # Ticks for misses to the cache
system.cache.missLatency::total                  8130                       # Ticks for misses to the cache
system.cache.hitRatio                        0.514308                       # The ratio of hits to the total accesses to the cache
system.membus.pkt_count_system.cache.mem_side::system.mem_ctrl.port        24262                       # Packet count per connected master and slave (bytes)
system.membus.pkt_size_system.cache.mem_side::system.mem_ctrl.port      1032448                       # Cumulative packet size per connected master and slave (bytes)
