processSpaceSeq8kB

---------- Begin Simulation Statistics ----------
sim_seconds                                  0.000176                       # Number of seconds simulated
sim_ticks                                   175866000                       # Number of ticks simulated
final_tick                                  175866000                       # Number of ticks from beginning of simulation (restored from checkpoints and never reset)
sim_freq                                 1000000000000                       # Frequency of simulated ticks
host_inst_rate                                 300629                       # Simulator instruction rate (inst/s)
host_op_rate                                   300554                       # Simulator op (including micro ops) rate (op/s)
host_tick_rate                             4408442584                       # Simulator tick rate (ticks/s)
host_mem_usage                                6687892                       # Number of bytes of host memory used
host_seconds                                     0.04                       # Real time elapsed on the host
sim_insts                                       11987                       # Number of instructions simulated
sim_ops                                         11987                       # Number of ops (including micro ops) simulated



system.cache.pwrStateResidencyTicks::UNDEFINED    175866000                       # Cumulative time (in ticks) in various power states
system.cache.hits                               11642                       # Number of hits
system.cache.misses                              5097                       # Number of misses
system.cache.missLatency::samples                5097                       # Ticks for misses to the cache
system.cache.missLatency::mean           31219.737100                       # Ticks for misses to the cache
system.cache.missLatency::gmean          27710.064012                       # Ticks for misses to the cache
system.cache.missLatency::stdev          24401.251892                       # Ticks for misses to the cache
system.cache.missLatency::0-65535                4866     95.47%     95.47% # Ticks for misses to the cache
system.cache.missLatency::65536-131071            190      3.73%     99.20% # Ticks for misses to the cache
system.cache.missLatency::131072-196607            26      0.51%     99.71% # Ticks for misses to the cache
system.cache.missLatency::196608-262143             6      0.12%     99.82% # Ticks for misses to the cache
system.cache.missLatency::262144-327679             5      0.10%     99.92% # Ticks for misses to the cache
system.cache.missLatency::327680-393215             2      0.04%     99.96% # Ticks for misses to the cache
system.cache.missLatency::393216-458751             0      0.00%     99.96% # Ticks for misses to the cache
system.cache.missLatency::458752-524287             0      0.00%     99.96% # Ticks for misses to the cache
system.cache.missLatency::524288-589823             0      0.00%     99.96% # Ticks for misses to the cache
system.cache.missLatency::589824-655359             2      0.04%    100.00% # Ticks for misses to the cache
system.cache.missLatency::655360-720895             0      0.00%    100.00% # Ticks for misses to the cache
system.cache.missLatency::720896-786431             0      0.00%    100.00% # Ticks for misses to the cache
system.cache.missLatency::786432-851967             0      0.00%    100.00% # Ticks for misses to the cache
system.cache.missLatency::851968-917503             0      0.00%    100.00% # Ticks for misses to the cache
system.cache.missLatency::917504-983039             0      0.00%    100.00% # Ticks for misses to the cache
system.cache.missLatency::983040-1.04858e+06            0      0.00%    100.00% # Ticks for misses to the cache
system.cache.missLatency::total                  5097                       # Ticks for misses to the cache
system.cache.hitRatio                        0.695502                       # The ratio of hits to the total accesses to the cache
system.membus.pkt_count_system.cache.mem_side::system.mem_ctrl.port        15163                       # Packet count per connected master and slave (bytes)
system.membus.pkt_size_system.cache.mem_side::system.mem_ctrl.port       644224                       # Cumulative packet size per connected master and slave (bytes)
