ptrsStructsLru8kB

---------- Begin Simulation Statistics ----------
sim_seconds                                  0.000140                       # Number of seconds simulated
sim_ticks                                   140323000                       # Number of ticks simulated
final_tick                                  140323000                       # Number of ticks from beginning of simulation (restored from checkpoints and never reset)
sim_freq                                 1000000000000                       # Frequency of simulated ticks
host_inst_rate                                 289929                       # Simulator instruction rate (inst/s)
host_op_rate                                   289831                       # Simulator op (including micro ops) rate (op/s)
host_tick_rate                             5236519013                       # Simulator tick rate (ticks/s)
host_mem_usage                                6697108                       # Number of bytes of host memory used
host_seconds                                     0.03                       # Real time elapsed on the host
sim_insts                                        7764                       # Number of instructions simulated
sim_ops                                          7764                       # Number of ops (including micro ops) simulated



system.cache.pwrStateResidencyTicks::UNDEFINED    140323000                       # Cumulative time (in ticks) in various power states
system.cache.hits                                6015                       # Number of hits
system.cache.misses                              4323                       # Number of misses
system.cache.missLatency::samples                4323                       # Ticks for misses to the cache
system.cache.missLatency::mean           30068.239648                       # Ticks for misses to the cache
system.cache.missLatency::gmean          27185.726378                       # Ticks for misses to the cache
system.cache.missLatency::stdev          21338.737303                       # Ticks for misses to the cache
system.cache.missLatency::0-65535                4141     95.79%     95.79% # Ticks for misses to the cache
system.cache.missLatency::65536-131071            156      3.61%     99.40% # Ticks for misses to the cache
system.cache.missLatency::131072-196607            17      0.39%     99.79% # Ticks for misses to the cache
system.cache.missLatency::196608-262143             3      0.07%     99.86% # Ticks for misses to the cache
system.cache.missLatency::262144-327679             4      0.09%     99.95% # Ticks for misses to the cache
system.cache.missLatency::327680-393215             1      0.02%     99.98% # Ticks for misses to the cache
system.cache.missLatency::393216-458751             0      0.00%     99.98% # Ticks for misses to the cache
system.cache.missLatency::458752-524287             0      0.00%     99.98% # Ticks for misses to the cache
system.cache.missLatency::524288-589823             0      0.00%     99.98% # Ticks for misses to the cache
system.cache.missLatency::589824-655359             1      0.02%    100.00% # Ticks for misses to the cache
system.cache.missLatency::655360-720895             0      0.00%    100.00% # Ticks for misses to the cache
system.cache.missLatency::720896-786431             0      0.00%    100.00% # Ticks for misses to the cache
system.cache.missLatency::786432-851967             0      0.00%    100.00% # Ticks for misses to the cache
system.cache.missLatency::851968-917503             0      0.00%    100.00% # Ticks for misses to the cache
system.cache.missLatency::917504-983039             0      0.00%    100.00% # Ticks for misses to the cache
system.cache.missLatency::983040-1.04858e+06            0      0.00%    100.00% # Ticks for misses to the cache
system.cache.missLatency::total                  4323                       # Ticks for misses to the cache
system.cache.hitRatio                        0.581834                       # The ratio of hits to the total accesses to the cache
system.membus.pkt_count_system.cache.mem_side::system.mem_ctrl.port        12841                       # Packet count per connected master and slave (bytes)
system.membus.pkt_size_system.cache.mem_side::system.mem_ctrl.port       545152                       # Cumulative packet size per connected master and slave (bytes)
