ptrsStringsRandom8kB

---------- Begin Simulation Statistics ----------
sim_seconds                                  0.000054                       # Number of seconds simulated
sim_ticks                                    54039000                       # Number of ticks simulated
final_tick                                   54039000                       # Number of ticks from beginning of simulation (restored from checkpoints and never reset)
sim_freq                                 1000000000000                       # Frequency of simulated ticks
host_inst_rate                                 484981                       # Simulator instruction rate (inst/s)
host_op_rate                                   484713                       # Simulator op (including micro ops) rate (op/s)
host_tick_rate                             2986240053                       # Simulator tick rate (ticks/s)
host_mem_usage                                6707356                       # Number of bytes of host memory used
host_seconds                                     0.02                       # Real time elapsed on the host
sim_insts                                        8767                       # Number of instructions simulated
sim_ops                                          8767                       # Number of ops (including micro ops) simulated



system.cache.pwrStateResidencyTicks::UNDEFINED     54039000                       # Cumulative time (in ticks) in various power states
system.cache.hits                               11019                       # Number of hits
system.cache.misses                               679                       # Number of misses
system.cache.missLatency::samples                 679                       # Ticks for misses to the cache
system.cache.missLatency::mean           62357.879234                       # Ticks for misses to the cache
system.cache.missLatency::gmean          57120.311489                       # Ticks for misses to the cache
system.cache.missLatency::stdev          33325.825895                       # Ticks for misses to the cache
system.cache.missLatency::0-32767                  61      8.98%      8.98% # Ticks for misses to the cache
system.cache.missLatency::32768-65535             451     66.42%     75.41% # Ticks for misses to the cache
system.cache.missLatency::65536-98303             132     19.44%     94.85% # Ticks for misses to the cache
system.cache.missLatency::98304-131071              9      1.33%     96.17% # Ticks for misses to the cache
system.cache.missLatency::131072-163839            18      2.65%     98.82% # Ticks for misses to the cache
system.cache.missLatency::163840-196607             3      0.44%     99.26% # Ticks for misses to the cache
system.cache.missLatency::196608-229375             0      0.00%     99.26% # Ticks for misses to the cache
system.cache.missLatency::229376-262143             0      0.00%     99.26% # Ticks for misses to the cache
system.cache.missLatency::262144-294911             1      0.15%     99.41% # Ticks for misses to the cache
system.cache.missLatency::294912-327679             3      0.44%     99.85% # Ticks for misses to the cache
system.cache.missLatency::327680-360447             0      0.00%     99.85% # Ticks for misses to the cache
system.cache.missLatency::360448-393215             0      0.00%     99.85% # Ticks for misses to the cache
system.cache.missLatency::393216-425983             0      0.00%     99.85% # Ticks for misses to the cache
system.cache.missLatency::425984-458751             0      0.00%     99.85% # Ticks for misses to the cache
system.cache.missLatency::458752-491519             1      0.15%    100.00% # Ticks for misses to the cache
system.cache.missLatency::491520-524287             0      0.00%    100.00% # Ticks for misses to the cache
system.cache.missLatency::total                   679                       # Ticks for misses to the cache
system.cache.hitRatio                        0.941956                       # The ratio of hits to the total accesses to the cache
system.membus.pkt_count_system.cache.mem_side::system.mem_ctrl.port         1909                       # Packet count per connected master and slave (bytes)
system.membus.pkt_size_system.cache.mem_side::system.mem_ctrl.port        78720                       # Cumulative packet size per connected master and slave (bytes)
