
---------- Begin Simulation Statistics ----------
sim_seconds                                  0.066842                       # Number of seconds simulated
sim_ticks                                 66842385000                       # Number of ticks simulated
final_tick                                66842385000                       # Number of ticks from beginning of simulation (restored from checkpoints and never reset)
sim_freq                                 1000000000000                       # Frequency of simulated ticks
host_inst_rate                                 936612                       # Simulator instruction rate (inst/s)
host_op_rate                                   936612                       # Simulator op (including micro ops) rate (op/s)
host_tick_rate                             1422560256                       # Simulator tick rate (ticks/s)
host_mem_usage                                6703252                       # Number of bytes of host memory used
host_seconds                                    46.99                       # Real time elapsed on the host
sim_insts                                    44008943                       # Number of instructions simulated
sim_ops                                      44008943                       # Number of ops (including micro ops) simulated
system.clk_domain.voltage_domain.voltage            1                       # Voltage in Volts
system.clk_domain.clock                          1000                       # Clock period in ticks
system.mem_ctrl.pwrStateResidencyTicks::UNDEFINED  66842385000                       # Cumulative time (in ticks) in various power states
system.mem_ctrl.bytes_read::cpu.inst          1335936                       # Number of bytes read from this memory
system.mem_ctrl.bytes_read::cpu.data          9044416                       # Number of bytes read from this memory
system.mem_ctrl.bytes_read::total            10380352                       # Number of bytes read from this memory
system.mem_ctrl.bytes_inst_read::cpu.inst      1335936                       # Number of instructions bytes read from this memory
system.mem_ctrl.bytes_inst_read::total        1335936                       # Number of instructions bytes read from this memory
system.mem_ctrl.bytes_written::writebacks     10379328                       # Number of bytes written to this memory
system.mem_ctrl.bytes_written::total         10379328                       # Number of bytes written to this memory
system.mem_ctrl.num_reads::cpu.inst             20874                       # Number of read requests responded to by this memory
system.mem_ctrl.num_reads::cpu.data            141319                       # Number of read requests responded to by this memory
system.mem_ctrl.num_reads::total               162193                       # Number of read requests responded to by this memory
system.mem_ctrl.num_writes::writebacks         162177                       # Number of write requests responded to by this memory
system.mem_ctrl.num_writes::total              162177                       # Number of write requests responded to by this memory
system.mem_ctrl.bw_read::cpu.inst            19986360                       # Total read bandwidth from this memory (bytes/s)
system.mem_ctrl.bw_read::cpu.data           135309594                       # Total read bandwidth from this memory (bytes/s)
system.mem_ctrl.bw_read::total              155295955                       # Total read bandwidth from this memory (bytes/s)
system.mem_ctrl.bw_inst_read::cpu.inst       19986360                       # Instruction read bandwidth from this memory (bytes/s)
system.mem_ctrl.bw_inst_read::total          19986360                       # Instruction read bandwidth from this memory (bytes/s)
system.mem_ctrl.bw_write::writebacks        155280635                       # Write bandwidth from this memory (bytes/s)
system.mem_ctrl.bw_write::total             155280635                       # Write bandwidth from this memory (bytes/s)
system.mem_ctrl.bw_total::writebacks        155280635                       # Total bandwidth to/from this memory (bytes/s)
system.mem_ctrl.bw_total::cpu.inst           19986360                       # Total bandwidth to/from this memory (bytes/s)
system.mem_ctrl.bw_total::cpu.data          135309594                       # Total bandwidth to/from this memory (bytes/s)
system.mem_ctrl.bw_total::total             310576590                       # Total bandwidth to/from this memory (bytes/s)
system.mem_ctrl.readReqs                       162193                       # Number of read requests accepted
system.mem_ctrl.writeReqs                      162177                       # Number of write requests accepted
system.mem_ctrl.readBursts                     162193                       # Number of DRAM read bursts, including those serviced by the write queue
system.mem_ctrl.writeBursts                    162177                       # Number of DRAM write bursts, including those merged in the write queue
system.mem_ctrl.bytesReadDRAM                 8093824                       # Total number of bytes read from DRAM
system.mem_ctrl.bytesReadWrQ                  2286528                       # Total number of bytes read from write queue
system.mem_ctrl.bytesWritten                  8842560                       # Total number of bytes written to DRAM
system.mem_ctrl.bytesReadSys                 10380352                       # Total read bytes from the system interface side
system.mem_ctrl.bytesWrittenSys              10379328                       # Total written bytes from the system interface side
system.mem_ctrl.servicedByWrQ                   35727                       # Number of DRAM read bursts serviced by the write queue
system.mem_ctrl.mergedWrBursts                  23985                       # Number of DRAM write bursts merged with an existing one
system.mem_ctrl.neitherReadNorWriteReqs             0                       # Number of requests that are neither read nor write
system.mem_ctrl.perBankRdBursts::0               8092                       # Per bank write bursts
system.mem_ctrl.perBankRdBursts::1               7996                       # Per bank write bursts
system.mem_ctrl.perBankRdBursts::2               8062                       # Per bank write bursts
system.mem_ctrl.perBankRdBursts::3               7864                       # Per bank write bursts
system.mem_ctrl.perBankRdBursts::4               7805                       # Per bank write bursts
system.mem_ctrl.perBankRdBursts::5               7759                       # Per bank write bursts
system.mem_ctrl.perBankRdBursts::6               7746                       # Per bank write bursts
system.mem_ctrl.perBankRdBursts::7               7715                       # Per bank write bursts
system.mem_ctrl.perBankRdBursts::8               7714                       # Per bank write bursts
system.mem_ctrl.perBankRdBursts::9               7999                       # Per bank write bursts
system.mem_ctrl.perBankRdBursts::10              7720                       # Per bank write bursts
system.mem_ctrl.perBankRdBursts::11              7983                       # Per bank write bursts
system.mem_ctrl.perBankRdBursts::12              7974                       # Per bank write bursts
system.mem_ctrl.perBankRdBursts::13              8005                       # Per bank write bursts
system.mem_ctrl.perBankRdBursts::14              8036                       # Per bank write bursts
system.mem_ctrl.perBankRdBursts::15              7996                       # Per bank write bursts
system.mem_ctrl.perBankWrBursts::0              14986                       # Per bank write bursts
system.mem_ctrl.perBankWrBursts::1               8136                       # Per bank write bursts
system.mem_ctrl.perBankWrBursts::2              10967                       # Per bank write bursts
system.mem_ctrl.perBankWrBursts::3               8023                       # Per bank write bursts
system.mem_ctrl.perBankWrBursts::4               7943                       # Per bank write bursts
system.mem_ctrl.perBankWrBursts::5               7886                       # Per bank write bursts
system.mem_ctrl.perBankWrBursts::6               7895                       # Per bank write bursts
system.mem_ctrl.perBankWrBursts::7               7882                       # Per bank write bursts
system.mem_ctrl.perBankWrBursts::8               7826                       # Per bank write bursts
system.mem_ctrl.perBankWrBursts::9               8132                       # Per bank write bursts
system.mem_ctrl.perBankWrBursts::10              7849                       # Per bank write bursts
system.mem_ctrl.perBankWrBursts::11              8109                       # Per bank write bursts
system.mem_ctrl.perBankWrBursts::12              8100                       # Per bank write bursts
system.mem_ctrl.perBankWrBursts::13              8133                       # Per bank write bursts
system.mem_ctrl.perBankWrBursts::14              8161                       # Per bank write bursts
system.mem_ctrl.perBankWrBursts::15              8137                       # Per bank write bursts
system.mem_ctrl.numRdRetry                          0                       # Number of times read queue was full causing retry
system.mem_ctrl.numWrRetry                          0                       # Number of times write queue was full causing retry
system.mem_ctrl.totGap                    66842376000                       # Total gap between requests
system.mem_ctrl.readPktSize::0                      0                       # Read request sizes (log2)
system.mem_ctrl.readPktSize::1                      0                       # Read request sizes (log2)
system.mem_ctrl.readPktSize::2                      0                       # Read request sizes (log2)
system.mem_ctrl.readPktSize::3                      0                       # Read request sizes (log2)
system.mem_ctrl.readPktSize::4                      0                       # Read request sizes (log2)
system.mem_ctrl.readPktSize::5                      0                       # Read request sizes (log2)
system.mem_ctrl.readPktSize::6                 162193                       # Read request sizes (log2)
system.mem_ctrl.writePktSize::0                     0                       # Write request sizes (log2)
system.mem_ctrl.writePktSize::1                     0                       # Write request sizes (log2)
system.mem_ctrl.writePktSize::2                     0                       # Write request sizes (log2)
system.mem_ctrl.writePktSize::3                     0                       # Write request sizes (log2)
system.mem_ctrl.writePktSize::4                     0                       # Write request sizes (log2)
system.mem_ctrl.writePktSize::5                     0                       # Write request sizes (log2)
system.mem_ctrl.writePktSize::6                162177                       # Write request sizes (log2)
system.mem_ctrl.rdQLenPdf::0                   126466                       # What read queue length does an incoming req see
system.mem_ctrl.rdQLenPdf::1                        0                       # What read queue length does an incoming req see
system.mem_ctrl.rdQLenPdf::2                        0                       # What read queue length does an incoming req see
system.mem_ctrl.rdQLenPdf::3                        0                       # What read queue length does an incoming req see
system.mem_ctrl.rdQLenPdf::4                        0                       # What read queue length does an incoming req see
system.mem_ctrl.rdQLenPdf::5                        0                       # What read queue length does an incoming req see
system.mem_ctrl.rdQLenPdf::6                        0                       # What read queue length does an incoming req see
system.mem_ctrl.rdQLenPdf::7                        0                       # What read queue length does an incoming req see
system.mem_ctrl.rdQLenPdf::8                        0                       # What read queue length does an incoming req see
system.mem_ctrl.rdQLenPdf::9                        0                       # What read queue length does an incoming req see
system.mem_ctrl.rdQLenPdf::10                       0                       # What read queue length does an incoming req see
system.mem_ctrl.rdQLenPdf::11                       0                       # What read queue length does an incoming req see
system.mem_ctrl.rdQLenPdf::12                       0                       # What read queue length does an incoming req see
system.mem_ctrl.rdQLenPdf::13                       0                       # What read queue length does an incoming req see
system.mem_ctrl.rdQLenPdf::14                       0                       # What read queue length does an incoming req see
system.mem_ctrl.rdQLenPdf::15                       0                       # What read queue length does an incoming req see
system.mem_ctrl.rdQLenPdf::16                       0                       # What read queue length does an incoming req see
system.mem_ctrl.rdQLenPdf::17                       0                       # What read queue length does an incoming req see
system.mem_ctrl.rdQLenPdf::18                       0                       # What read queue length does an incoming req see
system.mem_ctrl.rdQLenPdf::19                       0                       # What read queue length does an incoming req see
system.mem_ctrl.rdQLenPdf::20                       0                       # What read queue length does an incoming req see
system.mem_ctrl.rdQLenPdf::21                       0                       # What read queue length does an incoming req see
system.mem_ctrl.rdQLenPdf::22                       0                       # What read queue length does an incoming req see
system.mem_ctrl.rdQLenPdf::23                       0                       # What read queue length does an incoming req see
system.mem_ctrl.rdQLenPdf::24                       0                       # What read queue length does an incoming req see
system.mem_ctrl.rdQLenPdf::25                       0                       # What read queue length does an incoming req see
system.mem_ctrl.rdQLenPdf::26                       0                       # What read queue length does an incoming req see
system.mem_ctrl.rdQLenPdf::27                       0                       # What read queue length does an incoming req see
system.mem_ctrl.rdQLenPdf::28                       0                       # What read queue length does an incoming req see
system.mem_ctrl.rdQLenPdf::29                       0                       # What read queue length does an incoming req see
system.mem_ctrl.rdQLenPdf::30                       0                       # What read queue length does an incoming req see
system.mem_ctrl.rdQLenPdf::31                       0                       # What read queue length does an incoming req see
system.mem_ctrl.wrQLenPdf::0                        1                       # What write queue length does an incoming req see
system.mem_ctrl.wrQLenPdf::1                        1                       # What write queue length does an incoming req see
system.mem_ctrl.wrQLenPdf::2                        1                       # What write queue length does an incoming req see
system.mem_ctrl.wrQLenPdf::3                        1                       # What write queue length does an incoming req see
system.mem_ctrl.wrQLenPdf::4                        1                       # What write queue length does an incoming req see
system.mem_ctrl.wrQLenPdf::5                        1                       # What write queue length does an incoming req see
system.mem_ctrl.wrQLenPdf::6                        1                       # What write queue length does an incoming req see
system.mem_ctrl.wrQLenPdf::7                        1                       # What write queue length does an incoming req see
system.mem_ctrl.wrQLenPdf::8                        1                       # What write queue length does an incoming req see
system.mem_ctrl.wrQLenPdf::9                        1                       # What write queue length does an incoming req see
system.mem_ctrl.wrQLenPdf::10                       1                       # What write queue length does an incoming req see
system.mem_ctrl.wrQLenPdf::11                       1                       # What write queue length does an incoming req see
system.mem_ctrl.wrQLenPdf::12                       1                       # What write queue length does an incoming req see
system.mem_ctrl.wrQLenPdf::13                       1                       # What write queue length does an incoming req see
system.mem_ctrl.wrQLenPdf::14                       1                       # What write queue length does an incoming req see
system.mem_ctrl.wrQLenPdf::15                    7479                       # What write queue length does an incoming req see
system.mem_ctrl.wrQLenPdf::16                    7494                       # What write queue length does an incoming req see
system.mem_ctrl.wrQLenPdf::17                    7650                       # What write queue length does an incoming req see
system.mem_ctrl.wrQLenPdf::18                    7693                       # What write queue length does an incoming req see
system.mem_ctrl.wrQLenPdf::19                    7691                       # What write queue length does an incoming req see
system.mem_ctrl.wrQLenPdf::20                    7672                       # What write queue length does an incoming req see
system.mem_ctrl.wrQLenPdf::21                    7691                       # What write queue length does an incoming req see
system.mem_ctrl.wrQLenPdf::22                    7696                       # What write queue length does an incoming req see
system.mem_ctrl.wrQLenPdf::23                    8069                       # What write queue length does an incoming req see
system.mem_ctrl.wrQLenPdf::24                    7703                       # What write queue length does an incoming req see
system.mem_ctrl.wrQLenPdf::25                    7686                       # What write queue length does an incoming req see
system.mem_ctrl.wrQLenPdf::26                    7684                       # What write queue length does an incoming req see
system.mem_ctrl.wrQLenPdf::27                    7673                       # What write queue length does an incoming req see
system.mem_ctrl.wrQLenPdf::28                    7667                       # What write queue length does an incoming req see
system.mem_ctrl.wrQLenPdf::29                    7657                       # What write queue length does an incoming req see
system.mem_ctrl.wrQLenPdf::30                    7656                       # What write queue length does an incoming req see
system.mem_ctrl.wrQLenPdf::31                    7657                       # What write queue length does an incoming req see
system.mem_ctrl.wrQLenPdf::32                    7656                       # What write queue length does an incoming req see
system.mem_ctrl.wrQLenPdf::33                       3                       # What write queue length does an incoming req see
system.mem_ctrl.wrQLenPdf::34                       0                       # What write queue length does an incoming req see
system.mem_ctrl.wrQLenPdf::35                       0                       # What write queue length does an incoming req see
system.mem_ctrl.wrQLenPdf::36                       0                       # What write queue length does an incoming req see
system.mem_ctrl.wrQLenPdf::37                       0                       # What write queue length does an incoming req see
system.mem_ctrl.wrQLenPdf::38                       0                       # What write queue length does an incoming req see
system.mem_ctrl.wrQLenPdf::39                       0                       # What write queue length does an incoming req see
system.mem_ctrl.wrQLenPdf::40                       0                       # What write queue length does an incoming req see
system.mem_ctrl.wrQLenPdf::41                       0                       # What write queue length does an incoming req see
system.mem_ctrl.wrQLenPdf::42                       0                       # What write queue length does an incoming req see
system.mem_ctrl.wrQLenPdf::43                       0                       # What write queue length does an incoming req see
system.mem_ctrl.wrQLenPdf::44                       0                       # What write queue length does an incoming req see
system.mem_ctrl.wrQLenPdf::45                       0                       # What write queue length does an incoming req see
system.mem_ctrl.wrQLenPdf::46                       0                       # What write queue length does an incoming req see
system.mem_ctrl.wrQLenPdf::47                       0                       # What write queue length does an incoming req see
system.mem_ctrl.wrQLenPdf::48                       0                       # What write queue length does an incoming req see
system.mem_ctrl.wrQLenPdf::49                       0                       # What write queue length does an incoming req see
system.mem_ctrl.wrQLenPdf::50                       0                       # What write queue length does an incoming req see
system.mem_ctrl.wrQLenPdf::51                       0                       # What write queue length does an incoming req see
system.mem_ctrl.wrQLenPdf::52                       0                       # What write queue length does an incoming req see
system.mem_ctrl.wrQLenPdf::53                       0                       # What write queue length does an incoming req see
system.mem_ctrl.wrQLenPdf::54                       0                       # What write queue length does an incoming req see
system.mem_ctrl.wrQLenPdf::55                       0                       # What write queue length does an incoming req see
system.mem_ctrl.wrQLenPdf::56                       0                       # What write queue length does an incoming req see
system.mem_ctrl.wrQLenPdf::57                       0                       # What write queue length does an incoming req see
system.mem_ctrl.wrQLenPdf::58                       0                       # What write queue length does an incoming req see
system.mem_ctrl.wrQLenPdf::59                       0                       # What write queue length does an incoming req see
system.mem_ctrl.wrQLenPdf::60                       0                       # What write queue length does an incoming req see
system.mem_ctrl.wrQLenPdf::61                       0                       # What write queue length does an incoming req see
system.mem_ctrl.wrQLenPdf::62                       0                       # What write queue length does an incoming req see
system.mem_ctrl.wrQLenPdf::63                       0                       # What write queue length does an incoming req see
system.mem_ctrl.bytesPerActivate::samples        29408                       # Bytes accessed per row activation
system.mem_ctrl.bytesPerActivate::mean     575.819369                       # Bytes accessed per row activation
system.mem_ctrl.bytesPerActivate::gmean    374.341408                       # Bytes accessed per row activation
system.mem_ctrl.bytesPerActivate::stdev    397.627500                       # Bytes accessed per row activation
system.mem_ctrl.bytesPerActivate::0-127          5601     19.05%     19.05% # Bytes accessed per row activation
system.mem_ctrl.bytesPerActivate::128-255         4249     14.45%     33.49% # Bytes accessed per row activation
system.mem_ctrl.bytesPerActivate::256-383         1923      6.54%     40.03% # Bytes accessed per row activation
system.mem_ctrl.bytesPerActivate::384-511         1202      4.09%     44.12% # Bytes accessed per row activation
system.mem_ctrl.bytesPerActivate::512-639         1138      3.87%     47.99% # Bytes accessed per row activation
system.mem_ctrl.bytesPerActivate::640-767         2246      7.64%     55.63% # Bytes accessed per row activation
system.mem_ctrl.bytesPerActivate::768-895         2230      7.58%     63.21% # Bytes accessed per row activation
system.mem_ctrl.bytesPerActivate::896-1023         1080      3.67%     66.88% # Bytes accessed per row activation
system.mem_ctrl.bytesPerActivate::1024-1151         9739     33.12%    100.00% # Bytes accessed per row activation
system.mem_ctrl.bytesPerActivate::total         29408                       # Bytes accessed per row activation
system.mem_ctrl.rdPerTurnAround::samples         7656                       # Reads before turning the bus around for writes
system.mem_ctrl.rdPerTurnAround::mean       16.518548                       # Reads before turning the bus around for writes
system.mem_ctrl.rdPerTurnAround::gmean      16.450862                       # Reads before turning the bus around for writes
system.mem_ctrl.rdPerTurnAround::stdev       1.483960                       # Reads before turning the bus around for writes
system.mem_ctrl.rdPerTurnAround::10-11              9      0.12%      0.12% # Reads before turning the bus around for writes
system.mem_ctrl.rdPerTurnAround::12-13            212      2.77%      2.89% # Reads before turning the bus around for writes
system.mem_ctrl.rdPerTurnAround::14-15           1580     20.64%     23.52% # Reads before turning the bus around for writes
system.mem_ctrl.rdPerTurnAround::16-17           3744     48.90%     72.43% # Reads before turning the bus around for writes
system.mem_ctrl.rdPerTurnAround::18-19           2058     26.88%     99.31% # Reads before turning the bus around for writes
system.mem_ctrl.rdPerTurnAround::20-21             50      0.65%     99.96% # Reads before turning the bus around for writes
system.mem_ctrl.rdPerTurnAround::22-23              2      0.03%     99.99% # Reads before turning the bus around for writes
system.mem_ctrl.rdPerTurnAround::44-45              1      0.01%    100.00% # Reads before turning the bus around for writes
system.mem_ctrl.rdPerTurnAround::total           7656                       # Reads before turning the bus around for writes
system.mem_ctrl.wrPerTurnAround::samples         7655                       # Writes before turning the bus around for reads
system.mem_ctrl.wrPerTurnAround::mean       18.048204                       # Writes before turning the bus around for reads
system.mem_ctrl.wrPerTurnAround::gmean      18.042741                       # Writes before turning the bus around for reads
system.mem_ctrl.wrPerTurnAround::stdev       0.440504                       # Writes before turning the bus around for reads
system.mem_ctrl.wrPerTurnAround::16               167      2.18%      2.18% # Writes before turning the bus around for reads
system.mem_ctrl.wrPerTurnAround::17                 6      0.08%      2.26% # Writes before turning the bus around for reads
system.mem_ctrl.wrPerTurnAround::18              6830     89.22%     91.48% # Writes before turning the bus around for reads
system.mem_ctrl.wrPerTurnAround::19               598      7.81%     99.29% # Writes before turning the bus around for reads
system.mem_ctrl.wrPerTurnAround::20                51      0.67%     99.96% # Writes before turning the bus around for reads
system.mem_ctrl.wrPerTurnAround::21                 3      0.04%    100.00% # Writes before turning the bus around for reads
system.mem_ctrl.wrPerTurnAround::total           7655                       # Writes before turning the bus around for reads
system.mem_ctrl.totQLat                    1850774250                       # Total ticks spent queuing
system.mem_ctrl.totMemAccLat               4222011750                       # Total ticks spent from burst creation until serviced by the DRAM
system.mem_ctrl.totBusLat                   632330000                       # Total ticks spent in databus transfers
system.mem_ctrl.avgQLat                      14634.56                       # Average queueing delay per DRAM burst
system.mem_ctrl.avgBusLat                     5000.00                       # Average bus latency per DRAM burst
system.mem_ctrl.avgMemAccLat                 33384.56                       # Average memory access latency per DRAM burst
system.mem_ctrl.avgRdBW                        121.09                       # Average DRAM read bandwidth in MiByte/s
system.mem_ctrl.avgWrBW                        132.29                       # Average achieved write bandwidth in MiByte/s
system.mem_ctrl.avgRdBWSys                     155.30                       # Average system read bandwidth in MiByte/s
system.mem_ctrl.avgWrBWSys                     155.28                       # Average system write bandwidth in MiByte/s
system.mem_ctrl.peakBW                       12800.00                       # Theoretical peak bandwidth in MiByte/s
system.mem_ctrl.busUtil                          1.98                       # Data bus utilization in percentage
system.mem_ctrl.busUtilRead                      0.95                       # Data bus utilization in percentage for reads
system.mem_ctrl.busUtilWrite                     1.03                       # Data bus utilization in percentage for writes
system.mem_ctrl.avgRdQLen                        1.00                       # Average read queue length when enqueuing
system.mem_ctrl.avgWrQLen                       24.63                       # Average write queue length when enqueuing
system.mem_ctrl.readRowHits                    112480                       # Number of row buffer hits during reads
system.mem_ctrl.writeRowHits                   122736                       # Number of row buffer hits during writes
system.mem_ctrl.readRowHitRate                  88.94                       # Row buffer hit rate for reads
system.mem_ctrl.writeRowHitRate                 88.82                       # Row buffer hit rate for writes
system.mem_ctrl.avgGap                      206068.30                       # Average gap between requests
system.mem_ctrl.pageHitRate                     88.88                       # Row buffer hit rate, read and write combined
system.mem_ctrl_0.actEnergy                 128220120                       # Energy for activate commands per rank (pJ)
system.mem_ctrl_0.preEnergy                  68135430                       # Energy for precharge commands per rank (pJ)
system.mem_ctrl_0.readEnergy                450098460                       # Energy for read commands per rank (pJ)
system.mem_ctrl_0.writeEnergy               384807960                       # Energy for write commands per rank (pJ)
system.mem_ctrl_0.refreshEnergy          5855675280.000001                       # Energy for refresh commands per rank (pJ)
system.mem_ctrl_0.actBackEnergy            4568091720                       # Energy for active background per rank (pJ)
system.mem_ctrl_0.preBackEnergy             338700480                       # Energy for precharge background per rank (pJ)
system.mem_ctrl_0.actPowerDownEnergy      12768588240                       # Energy for active power-down per rank (pJ)
system.mem_ctrl_0.prePowerDownEnergy       7877211840                       # Energy for precharge power-down per rank (pJ)
system.mem_ctrl_0.selfRefreshEnergy        2907834525                       # Energy for self refresh per rank (pJ)
system.mem_ctrl_0.totalEnergy             35347771785                       # Total energy per rank (pJ)
system.mem_ctrl_0.averagePower             528.822719                       # Core power per rank (mW)
system.mem_ctrl_0.totalIdleTime           55942153000                       # Total Idle time Per DRAM Rank
system.mem_ctrl_0.memoryStateTime::IDLE     657642500                       # Time in different power states
system.mem_ctrl_0.memoryStateTime::REF     2489308000                       # Time in different power states
system.mem_ctrl_0.memoryStateTime::SREF    7426855500                       # Time in different power states
system.mem_ctrl_0.memoryStateTime::PRE_PDN  20513620750                       # Time in different power states
system.mem_ctrl_0.memoryStateTime::ACT     7753217750                       # Time in different power states
system.mem_ctrl_0.memoryStateTime::ACT_PDN  28001740500                       # Time in different power states
system.mem_ctrl_1.actEnergy                  81802980                       # Energy for activate commands per rank (pJ)
system.mem_ctrl_1.preEnergy                  43467930                       # Energy for precharge commands per rank (pJ)
system.mem_ctrl_1.readEnergy                452868780                       # Energy for read commands per rank (pJ)
system.mem_ctrl_1.writeEnergy               336387240                       # Energy for write commands per rank (pJ)
system.mem_ctrl_1.refreshEnergy          4731498720.000001                       # Energy for refresh commands per rank (pJ)
system.mem_ctrl_1.actBackEnergy            2802359970                       # Energy for active background per rank (pJ)
system.mem_ctrl_1.preBackEnergy             258958560                       # Energy for precharge background per rank (pJ)
system.mem_ctrl_1.actPowerDownEnergy      12998269170                       # Energy for active power-down per rank (pJ)
system.mem_ctrl_1.prePowerDownEnergy       5052789120                       # Energy for precharge power-down per rank (pJ)
system.mem_ctrl_1.selfRefreshEnergy        5279069955                       # Energy for self refresh per rank (pJ)
system.mem_ctrl_1.totalEnergy             32038156935                       # Total energy per rank (pJ)
system.mem_ctrl_1.averagePower             479.309003                       # Core power per rank (mW)
system.mem_ctrl_1.totalIdleTime           60021101000                       # Total Idle time Per DRAM Rank
system.mem_ctrl_1.memoryStateTime::IDLE     460209750                       # Time in different power states
system.mem_ctrl_1.memoryStateTime::REF     2011080000                       # Time in different power states
system.mem_ctrl_1.memoryStateTime::SREF   18357683000                       # Time in different power states
system.mem_ctrl_1.memoryStateTime::PRE_PDN  13158317250                       # Time in different power states
system.mem_ctrl_1.memoryStateTime::ACT     4349994250                       # Time in different power states
system.mem_ctrl_1.memoryStateTime::ACT_PDN  28505100750                       # Time in different power states
system.pwrStateResidencyTicks::UNDEFINED  66842385000                       # Cumulative time (in ticks) in various power states
system.cache.pwrStateResidencyTicks::UNDEFINED  66842385000                       # Cumulative time (in ticks) in various power states
system.cache.hits                            57850951                       # Number of hits
system.cache.misses                            162193                       # Number of misses
system.cache.missLatency::samples              162193                       # Ticks for misses to the cache
system.cache.missLatency::mean           54436.634133                       # Ticks for misses to the cache
system.cache.missLatency::gmean          47402.481753                       # Ticks for misses to the cache
system.cache.missLatency::stdev          39432.938176                       # Ticks for misses to the cache
system.cache.missLatency::0-65535              150996     93.10%     93.10% # Ticks for misses to the cache
system.cache.missLatency::65536-131071           5868      3.62%     96.71% # Ticks for misses to the cache
system.cache.missLatency::131072-196607          1310      0.81%     97.52% # Ticks for misses to the cache
system.cache.missLatency::196608-262143          2005      1.24%     98.76% # Ticks for misses to the cache
system.cache.missLatency::262144-327679          1776      1.09%     99.85% # Ticks for misses to the cache
system.cache.missLatency::327680-393215           174      0.11%     99.96% # Ticks for misses to the cache
system.cache.missLatency::393216-458751             1      0.00%     99.96% # Ticks for misses to the cache
system.cache.missLatency::458752-524287             2      0.00%     99.96% # Ticks for misses to the cache
system.cache.missLatency::524288-589823             0      0.00%     99.96% # Ticks for misses to the cache
system.cache.missLatency::589824-655359            61      0.04%    100.00% # Ticks for misses to the cache
system.cache.missLatency::655360-720895             0      0.00%    100.00% # Ticks for misses to the cache
system.cache.missLatency::720896-786431             0      0.00%    100.00% # Ticks for misses to the cache
system.cache.missLatency::786432-851967             0      0.00%    100.00% # Ticks for misses to the cache
system.cache.missLatency::851968-917503             0      0.00%    100.00% # Ticks for misses to the cache
system.cache.missLatency::917504-983039             0      0.00%    100.00% # Ticks for misses to the cache
system.cache.missLatency::983040-1.04858e+06            0      0.00%    100.00% # Ticks for misses to the cache
system.cache.missLatency::total                162193                       # Ticks for misses to the cache
system.cache.hitRatio                        0.997204                       # The ratio of hits to the total accesses to the cache
system.cpu.dtb.fetch_hits                           0                       # ITB hits
system.cpu.dtb.fetch_misses                         0                       # ITB misses
system.cpu.dtb.fetch_acv                            0                       # ITB acv
system.cpu.dtb.fetch_accesses                       0                       # ITB accesses
system.cpu.dtb.read_hits                     10001310                       # DTB read hits
system.cpu.dtb.read_misses                        516                       # DTB read misses
system.cpu.dtb.read_acv                             0                       # DTB read access violations
system.cpu.dtb.read_accesses                 10001826                       # DTB read accesses
system.cpu.dtb.write_hits                     4001460                       # DTB write hits
system.cpu.dtb.write_misses                       915                       # DTB write misses
system.cpu.dtb.write_acv                            0                       # DTB write access violations
system.cpu.dtb.write_accesses                 4002375                       # DTB write accesses
system.cpu.dtb.data_hits                     14002770                       # DTB hits
system.cpu.dtb.data_misses                       1431                       # DTB misses
system.cpu.dtb.data_acv                             0                       # DTB access violations
system.cpu.dtb.data_accesses                 14004201                       # DTB accesses
system.cpu.itb.fetch_hits                    44010375                       # ITB hits
system.cpu.itb.fetch_misses                        19                       # ITB misses
system.cpu.itb.fetch_acv                            0                       # ITB acv
system.cpu.itb.fetch_accesses                44010394                       # ITB accesses
system.cpu.itb.read_hits                            0                       # DTB read hits
system.cpu.itb.read_misses                          0                       # DTB read misses
system.cpu.itb.read_acv                             0                       # DTB read access violations
system.cpu.itb.read_accesses                        0                       # DTB read accesses
system.cpu.itb.write_hits                           0                       # DTB write hits
system.cpu.itb.write_misses                         0                       # DTB write misses
system.cpu.itb.write_acv                            0                       # DTB write access violations
system.cpu.itb.write_accesses                       0                       # DTB write accesses
system.cpu.itb.data_hits                            0                       # DTB hits
system.cpu.itb.data_misses                          0                       # DTB misses
system.cpu.itb.data_acv                             0                       # DTB access violations
system.cpu.itb.data_accesses                        0                       # DTB accesses
system.cpu.workload.numSyscalls                    10                       # Number of system calls
system.cpu.pwrStateResidencyTicks::ON     66842385000                       # Cumulative time (in ticks) in various power states
system.cpu.numCycles                         66842385                       # number of cpu cycles simulated
system.cpu.numWorkItemsStarted                      0                       # number of work items this cpu started
system.cpu.numWorkItemsCompleted                    0                       # number of work items this cpu completed
system.cpu.committedInsts                    44008943                       # Number of instructions committed
system.cpu.committedOps                      44008943                       # Number of ops (including micro ops) committed
system.cpu.num_int_alu_accesses              42010290                       # Number of integer alu accesses
system.cpu.num_fp_alu_accesses                     16                       # Number of float alu accesses
system.cpu.num_vec_alu_accesses                     0                       # Number of vector alu accesses
system.cpu.num_func_calls                         231                       # number of times a function call or return occured
system.cpu.num_conditional_control_insts      2001271                       # number of instructions that are conditional controls
system.cpu.num_int_insts                     42010290                       # number of integer instructions
system.cpu.num_fp_insts                            16                       # number of float instructions
system.cpu.num_vec_insts                            0                       # number of vector instructions
system.cpu.num_int_register_reads            53014054                       # number of times the integer registers were read
system.cpu.num_int_register_writes           36006003                       # number of times the integer registers were written
system.cpu.num_fp_register_reads                   14                       # number of times the floating registers were read
system.cpu.num_fp_register_writes                   2                       # number of times the floating registers were written
system.cpu.num_vec_register_reads                   0                       # number of times the vector registers were read
system.cpu.num_vec_register_writes                  0                       # number of times the vector registers were written
system.cpu.num_mem_refs                      14004201                       # number of memory refs
system.cpu.num_load_insts                    10001826                       # Number of load instructions
system.cpu.num_store_insts                    4002375                       # Number of store instructions
system.cpu.num_idle_cycles                          0                       # Number of idle cycles
system.cpu.num_busy_cycles                   66842385                       # Number of busy cycles
system.cpu.not_idle_fraction                        1                       # Percentage of non-idle cycles
system.cpu.idle_fraction                            0                       # Percentage of idle cycles
system.cpu.Branches                           4001567                       # Number of branches fetched
system.cpu.op_class::No_OpClass                    22      0.00%      0.00% # Class of executed instruction
system.cpu.op_class::IntAlu                  30006141     68.18%     68.18% # Class of executed instruction
system.cpu.op_class::IntMult                        8      0.00%     68.18% # Class of executed instruction
system.cpu.op_class::IntDiv                         0      0.00%     68.18% # Class of executed instruction
system.cpu.op_class::FloatAdd                       2      0.00%     68.18% # Class of executed instruction
system.cpu.op_class::FloatCmp                       0      0.00%     68.18% # Class of executed instruction
system.cpu.op_class::FloatCvt                       0      0.00%     68.18% # Class of executed instruction
system.cpu.op_class::FloatMult                      0      0.00%     68.18% # Class of executed instruction
system.cpu.op_class::FloatMultAcc                   0      0.00%     68.18% # Class of executed instruction
system.cpu.op_class::FloatDiv                       0      0.00%     68.18% # Class of executed instruction
system.cpu.op_class::FloatMisc                      0      0.00%     68.18% # Class of executed instruction
system.cpu.op_class::FloatSqrt                      0      0.00%     68.18% # Class of executed instruction
system.cpu.op_class::SimdAdd                        0      0.00%     68.18% # Class of executed instruction
system.cpu.op_class::SimdAddAcc                     0      0.00%     68.18% # Class of executed instruction
system.cpu.op_class::SimdAlu                        0      0.00%     68.18% # Class of executed instruction
system.cpu.op_class::SimdCmp                        0      0.00%     68.18% # Class of executed instruction
system.cpu.op_class::SimdCvt                        0      0.00%     68.18% # Class of executed instruction
system.cpu.op_class::SimdMisc                       0      0.00%     68.18% # Class of executed instruction
system.cpu.op_class::SimdMult                       0      0.00%     68.18% # Class of executed instruction
system.cpu.op_class::SimdMultAcc                    0      0.00%     68.18% # Class of executed instruction
system.cpu.op_class::SimdShift                      0      0.00%     68.18% # Class of executed instruction
system.cpu.op_class::SimdShiftAcc                   0      0.00%     68.18% # Class of executed instruction
system.cpu.op_class::SimdSqrt                       0      0.00%     68.18% # Class of executed instruction
system.cpu.op_class::SimdFloatAdd                   0      0.00%     68.18% # Class of executed instruction
system.cpu.op_class::SimdFloatAlu                   0      0.00%     68.18% # Class of executed instruction
system.cpu.op_class::SimdFloatCmp                   0      0.00%     68.18% # Class of executed instruction
system.cpu.op_class::SimdFloatCvt                   0      0.00%     68.18% # Class of executed instruction
system.cpu.op_class::SimdFloatDiv                   0      0.00%     68.18% # Class of executed instruction
system.cpu.op_class::SimdFloatMisc                  0      0.00%     68.18% # Class of executed instruction
system.cpu.op_class::SimdFloatMult                  0      0.00%     68.18% # Class of executed instruction
system.cpu.op_class::SimdFloatMultAcc               0      0.00%     68.18% # Class of executed instruction
system.cpu.op_class::SimdFloatSqrt                  0      0.00%     68.18% # Class of executed instruction
system.cpu.op_class::MemRead                 10001825     22.73%     90.91% # Class of executed instruction
system.cpu.op_class::MemWrite                 4002362      9.09%    100.00% # Class of executed instruction
system.cpu.op_class::FloatMemRead                   1      0.00%    100.00% # Class of executed instruction
system.cpu.op_class::FloatMemWrite                 13      0.00%    100.00% # Class of executed instruction
system.cpu.op_class::IprAccess                      0      0.00%    100.00% # Class of executed instruction
system.cpu.op_class::InstPrefetch                   0      0.00%    100.00% # Class of executed instruction
system.cpu.op_class::total                   44010374                       # Class of executed instruction
system.membus.snoop_filter.tot_requests             0                       # Total number of requests made to the snoop filter.
system.membus.snoop_filter.hit_single_requests            0                       # Number of requests hitting in the snoop filter with a single holder of the requested data.
system.membus.snoop_filter.hit_multi_requests            0                       # Number of requests hitting in the snoop filter with multiple (>1) holders of the requested data.
system.membus.snoop_filter.tot_snoops               0                       # Total number of snoops made to the snoop filter.
system.membus.snoop_filter.hit_single_snoops            0                       # Number of snoops hitting in the snoop filter with a single holder of the requested data.
system.membus.snoop_filter.hit_multi_snoops            0                       # Number of snoops hitting in the snoop filter with multiple (>1) holders of the requested data.
system.membus.pwrStateResidencyTicks::UNDEFINED  66842385000                       # Cumulative time (in ticks) in various power states
system.membus.trans_dist::ReadReq              162193                       # Transaction distribution
system.membus.trans_dist::ReadResp             162193                       # Transaction distribution
system.membus.trans_dist::WritebackDirty       162177                       # Transaction distribution
system.membus.pkt_count_system.cache.mem_side::system.mem_ctrl.port       486563                       # Packet count per connected master and slave (bytes)
system.membus.pkt_count::total                 486563                       # Packet count per connected master and slave (bytes)
system.membus.pkt_size_system.cache.mem_side::system.mem_ctrl.port     20759680                       # Cumulative packet size per connected master and slave (bytes)
system.membus.pkt_size::total                20759680                       # Cumulative packet size per connected master and slave (bytes)
system.membus.snoops                                0                       # Total snoops (count)
system.membus.snoopTraffic                          0                       # Total snoop traffic (bytes)
system.membus.snoop_fanout::samples            162193                       # Request fanout histogram
system.membus.snoop_fanout::mean                    0                       # Request fanout histogram
system.membus.snoop_fanout::stdev                   0                       # Request fanout histogram
system.membus.snoop_fanout::underflows              0      0.00%      0.00% # Request fanout histogram
system.membus.snoop_fanout::0                  162193    100.00%    100.00% # Request fanout histogram
system.membus.snoop_fanout::overflows               0      0.00%    100.00% # Request fanout histogram
system.membus.snoop_fanout::min_value               0                       # Request fanout histogram
system.membus.snoop_fanout::max_value               0                       # Request fanout histogram
system.membus.snoop_fanout::total              162193                       # Request fanout histogram
system.membus.reqLayer0.occupancy           973078000                       # Layer occupancy (ticks)
system.membus.reqLayer0.utilization               1.5                       # Layer utilization (%)
system.membus.respLayer0.occupancy          845410250                       # Layer occupancy (ticks)
system.membus.respLayer0.utilization              1.3                       # Layer utilization (%)

---------- End Simulation Statistics   ----------
