
---------- Begin Simulation Statistics ----------
sim_seconds                                  0.000344                       # Number of seconds simulated
sim_ticks                                   344221000                       # Number of ticks simulated
final_tick                                  344221000                       # Number of ticks from beginning of simulation (restored from checkpoints and never reset)
sim_freq                                 1000000000000                       # Frequency of simulated ticks
host_inst_rate                                 255244                       # Simulator instruction rate (inst/s)
host_op_rate                                   255192                       # Simulator op (including micro ops) rate (op/s)
host_tick_rate                             6932950655                       # Simulator tick rate (ticks/s)
host_mem_usage                                6707348                       # Number of bytes of host memory used
host_seconds                                     0.05                       # Real time elapsed on the host
sim_insts                                       12668                       # Number of instructions simulated
sim_ops                                         12668                       # Number of ops (including micro ops) simulated
system.clk_domain.voltage_domain.voltage            1                       # Voltage in Volts
system.clk_domain.clock                          1000                       # Clock period in ticks
system.mem_ctrl.pwrStateResidencyTicks::UNDEFINED    344221000                       # Cumulative time (in ticks) in various power states
system.mem_ctrl.bytes_read::cpu.inst           358528                       # Number of bytes read from this memory
system.mem_ctrl.bytes_read::cpu.data           279808                       # Number of bytes read from this memory
system.mem_ctrl.bytes_read::total              638336                       # Number of bytes read from this memory
system.mem_ctrl.bytes_inst_read::cpu.inst       358528                       # Number of instructions bytes read from this memory
system.mem_ctrl.bytes_inst_read::total         358528                       # Number of instructions bytes read from this memory
system.mem_ctrl.bytes_written::writebacks       637312                       # Number of bytes written to this memory
system.mem_ctrl.bytes_written::total           637312                       # Number of bytes written to this memory
system.mem_ctrl.num_reads::cpu.inst              5602                       # Number of read requests responded to by this memory
system.mem_ctrl.num_reads::cpu.data              4372                       # Number of read requests responded to by this memory
system.mem_ctrl.num_reads::total                 9974                       # Number of read requests responded to by this memory
system.mem_ctrl.num_writes::writebacks           9958                       # Number of write requests responded to by this memory
system.mem_ctrl.num_writes::total                9958                       # Number of write requests responded to by this memory
system.mem_ctrl.bw_read::cpu.inst          1041563414                       # Total read bandwidth from this memory (bytes/s)
system.mem_ctrl.bw_read::cpu.data           812873125                       # Total read bandwidth from this memory (bytes/s)
system.mem_ctrl.bw_read::total             1854436539                       # Total read bandwidth from this memory (bytes/s)
system.mem_ctrl.bw_inst_read::cpu.inst     1041563414                       # Instruction read bandwidth from this memory (bytes/s)
system.mem_ctrl.bw_inst_read::total        1041563414                       # Instruction read bandwidth from this memory (bytes/s)
system.mem_ctrl.bw_write::writebacks       1851461706                       # Write bandwidth from this memory (bytes/s)
system.mem_ctrl.bw_write::total            1851461706                       # Write bandwidth from this memory (bytes/s)
system.mem_ctrl.bw_total::writebacks       1851461706                       # Total bandwidth to/from this memory (bytes/s)
system.mem_ctrl.bw_total::cpu.inst         1041563414                       # Total bandwidth to/from this memory (bytes/s)
system.mem_ctrl.bw_total::cpu.data          812873125                       # Total bandwidth to/from this memory (bytes/s)
system.mem_ctrl.bw_total::total            3705898246                       # Total bandwidth to/from this memory (bytes/s)
system.mem_ctrl.readReqs                         9974                       # Number of read requests accepted
system.mem_ctrl.writeReqs                        9958                       # Number of write requests accepted
system.mem_ctrl.readBursts                       9974                       # Number of DRAM read bursts, including those serviced by the write queue
system.mem_ctrl.writeBursts                      9958                       # Number of DRAM write bursts, including those merged in the write queue
system.mem_ctrl.bytesReadDRAM                  134336                       # Total number of bytes read from DRAM
system.mem_ctrl.bytesReadWrQ                   504000                       # Total number of bytes read from write queue
system.mem_ctrl.bytesWritten                   139008                       # Total number of bytes written to DRAM
system.mem_ctrl.bytesReadSys                   638336                       # Total read bytes from the system interface side
system.mem_ctrl.bytesWrittenSys                637312                       # Total written bytes from the system interface side
system.mem_ctrl.servicedByWrQ                    7875                       # Number of DRAM read bursts serviced by the write queue
system.mem_ctrl.mergedWrBursts                   7770                       # Number of DRAM write bursts merged with an existing one
system.mem_ctrl.neitherReadNorWriteReqs             0                       # Number of requests that are neither read nor write
system.mem_ctrl.perBankRdBursts::0                 78                       # Per bank write bursts
system.mem_ctrl.perBankRdBursts::1                  0                       # Per bank write bursts
system.mem_ctrl.perBankRdBursts::2                276                       # Per bank write bursts
system.mem_ctrl.perBankRdBursts::3                200                       # Per bank write bursts
system.mem_ctrl.perBankRdBursts::4                104                       # Per bank write bursts
system.mem_ctrl.perBankRdBursts::5                106                       # Per bank write bursts
system.mem_ctrl.perBankRdBursts::6                373                       # Per bank write bursts
system.mem_ctrl.perBankRdBursts::7                 76                       # Per bank write bursts
system.mem_ctrl.perBankRdBursts::8                 58                       # Per bank write bursts
system.mem_ctrl.perBankRdBursts::9                467                       # Per bank write bursts
system.mem_ctrl.perBankRdBursts::10                22                       # Per bank write bursts
system.mem_ctrl.perBankRdBursts::11                49                       # Per bank write bursts
system.mem_ctrl.perBankRdBursts::12                18                       # Per bank write bursts
system.mem_ctrl.perBankRdBursts::13                53                       # Per bank write bursts
system.mem_ctrl.perBankRdBursts::14               111                       # Per bank write bursts
system.mem_ctrl.perBankRdBursts::15               108                       # Per bank write bursts
system.mem_ctrl.perBankWrBursts::0                 78                       # Per bank write bursts
system.mem_ctrl.perBankWrBursts::1                  0                       # Per bank write bursts
system.mem_ctrl.perBankWrBursts::2                273                       # Per bank write bursts
system.mem_ctrl.perBankWrBursts::3                200                       # Per bank write bursts
system.mem_ctrl.perBankWrBursts::4                107                       # Per bank write bursts
system.mem_ctrl.perBankWrBursts::5                113                       # Per bank write bursts
system.mem_ctrl.perBankWrBursts::6                391                       # Per bank write bursts
system.mem_ctrl.perBankWrBursts::7                 75                       # Per bank write bursts
system.mem_ctrl.perBankWrBursts::8                 59                       # Per bank write bursts
system.mem_ctrl.perBankWrBursts::9                499                       # Per bank write bursts
system.mem_ctrl.perBankWrBursts::10                23                       # Per bank write bursts
system.mem_ctrl.perBankWrBursts::11                51                       # Per bank write bursts
system.mem_ctrl.perBankWrBursts::12                19                       # Per bank write bursts
system.mem_ctrl.perBankWrBursts::13                52                       # Per bank write bursts
system.mem_ctrl.perBankWrBursts::14               120                       # Per bank write bursts
system.mem_ctrl.perBankWrBursts::15               112                       # Per bank write bursts
system.mem_ctrl.numRdRetry                          0                       # Number of times read queue was full causing retry
system.mem_ctrl.numWrRetry                          0                       # Number of times write queue was full causing retry
system.mem_ctrl.totGap                      344217000                       # Total gap between requests
system.mem_ctrl.readPktSize::0                      0                       # Read request sizes (log2)
system.mem_ctrl.readPktSize::1                      0                       # Read request sizes (log2)
system.mem_ctrl.readPktSize::2                      0                       # Read request sizes (log2)
system.mem_ctrl.readPktSize::3                      0                       # Read request sizes (log2)
system.mem_ctrl.readPktSize::4                      0                       # Read request sizes (log2)
system.mem_ctrl.readPktSize::5                      0                       # Read request sizes (log2)
system.mem_ctrl.readPktSize::6                   9974                       # Read request sizes (log2)
system.mem_ctrl.writePktSize::0                     0                       # Write request sizes (log2)
system.mem_ctrl.writePktSize::1                     0                       # Write request sizes (log2)
system.mem_ctrl.writePktSize::2                     0                       # Write request sizes (log2)
system.mem_ctrl.writePktSize::3                     0                       # Write request sizes (log2)
system.mem_ctrl.writePktSize::4                     0                       # Write request sizes (log2)
system.mem_ctrl.writePktSize::5                     0                       # Write request sizes (log2)
system.mem_ctrl.writePktSize::6                  9958                       # Write request sizes (log2)
system.mem_ctrl.rdQLenPdf::0                     2099                       # What read queue length does an incoming req see
system.mem_ctrl.rdQLenPdf::1                        0                       # What read queue length does an incoming req see
system.mem_ctrl.rdQLenPdf::2                        0                       # What read queue length does an incoming req see
system.mem_ctrl.rdQLenPdf::3                        0                       # What read queue length does an incoming req see
system.mem_ctrl.rdQLenPdf::4                        0                       # What read queue length does an incoming req see
system.mem_ctrl.rdQLenPdf::5                        0                       # What read queue length does an incoming req see
system.mem_ctrl.rdQLenPdf::6                        0                       # What read queue length does an incoming req see
system.mem_ctrl.rdQLenPdf::7                        0                       # What read queue length does an incoming req see
system.mem_ctrl.rdQLenPdf::8                        0                       # What read queue length does an incoming req see
system.mem_ctrl.rdQLenPdf::9                        0                       # What read queue length does an incoming req see
system.mem_ctrl.rdQLenPdf::10                       0                       # What read queue length does an incoming req see
system.mem_ctrl.rdQLenPdf::11                       0                       # What read queue length does an incoming req see
system.mem_ctrl.rdQLenPdf::12                       0                       # What read queue length does an incoming req see
system.mem_ctrl.rdQLenPdf::13                       0                       # What read queue length does an incoming req see
system.mem_ctrl.rdQLenPdf::14                       0                       # What read queue length does an incoming req see
system.mem_ctrl.rdQLenPdf::15                       0                       # What read queue length does an incoming req see
system.mem_ctrl.rdQLenPdf::16                       0                       # What read queue length does an incoming req see
system.mem_ctrl.rdQLenPdf::17                       0                       # What read queue length does an incoming req see
system.mem_ctrl.rdQLenPdf::18                       0                       # What read queue length does an incoming req see
system.mem_ctrl.rdQLenPdf::19                       0                       # What read queue length does an incoming req see
system.mem_ctrl.rdQLenPdf::20                       0                       # What read queue length does an incoming req see
system.mem_ctrl.rdQLenPdf::21                       0                       # What read queue length does an incoming req see
system.mem_ctrl.rdQLenPdf::22                       0                       # What read queue length does an incoming req see
system.mem_ctrl.rdQLenPdf::23                       0                       # What read queue length does an incoming req see
system.mem_ctrl.rdQLenPdf::24                       0                       # What read queue length does an incoming req see
system.mem_ctrl.rdQLenPdf::25                       0                       # What read queue length does an incoming req see
system.mem_ctrl.rdQLenPdf::26                       0                       # What read queue length does an incoming req see
system.mem_ctrl.rdQLenPdf::27                       0                       # What read queue length does an incoming req see
system.mem_ctrl.rdQLenPdf::28                       0                       # What read queue length does an incoming req see
system.mem_ctrl.rdQLenPdf::29                       0                       # What read queue length does an incoming req see
system.mem_ctrl.rdQLenPdf::30                       0                       # What read queue length does an incoming req see
system.mem_ctrl.rdQLenPdf::31                       0                       # What read queue length does an incoming req see
system.mem_ctrl.wrQLenPdf::0                        1                       # What write queue length does an incoming req see
system.mem_ctrl.wrQLenPdf::1                        1                       # What write queue length does an incoming req see
system.mem_ctrl.wrQLenPdf::2                        1                       # What write queue length does an incoming req see
system.mem_ctrl.wrQLenPdf::3                        1                       # What write queue length does an incoming req see
system.mem_ctrl.wrQLenPdf::4                        1                       # What write queue length does an incoming req see
system.mem_ctrl.wrQLenPdf::5                        1                       # What write queue length does an incoming req see
system.mem_ctrl.wrQLenPdf::6                        1                       # What write queue length does an incoming req see
system.mem_ctrl.wrQLenPdf::7                        1                       # What write queue length does an incoming req see
system.mem_ctrl.wrQLenPdf::8                        1                       # What write queue length does an incoming req see
system.mem_ctrl.wrQLenPdf::9                        1                       # What write queue length does an incoming req see
system.mem_ctrl.wrQLenPdf::10                       1                       # What write queue length does an incoming req see
system.mem_ctrl.wrQLenPdf::11                       1                       # What write queue length does an incoming req see
system.mem_ctrl.wrQLenPdf::12                       1                       # What write queue length does an incoming req see
system.mem_ctrl.wrQLenPdf::13                       1                       # What write queue length does an incoming req see
system.mem_ctrl.wrQLenPdf::14                       1                       # What write queue length does an incoming req see
system.mem_ctrl.wrQLenPdf::15                      58                       # What write queue length does an incoming req see
system.mem_ctrl.wrQLenPdf::16                      62                       # What write queue length does an incoming req see
system.mem_ctrl.wrQLenPdf::17                     106                       # What write queue length does an incoming req see
system.mem_ctrl.wrQLenPdf::18                     134                       # What write queue length does an incoming req see
system.mem_ctrl.wrQLenPdf::19                     136                       # What write queue length does an incoming req see
system.mem_ctrl.wrQLenPdf::20                     127                       # What write queue length does an incoming req see
system.mem_ctrl.wrQLenPdf::21                     126                       # What write queue length does an incoming req see
system.mem_ctrl.wrQLenPdf::22                     127                       # What write queue length does an incoming req see
system.mem_ctrl.wrQLenPdf::23                     162                       # What write queue length does an incoming req see
system.mem_ctrl.wrQLenPdf::24                     127                       # What write queue length does an incoming req see
system.mem_ctrl.wrQLenPdf::25                     126                       # What write queue length does an incoming req see
system.mem_ctrl.wrQLenPdf::26                     126                       # What write queue length does an incoming req see
system.mem_ctrl.wrQLenPdf::27                     126                       # What write queue length does an incoming req see
system.mem_ctrl.wrQLenPdf::28                     126                       # What write queue length does an incoming req see
system.mem_ctrl.wrQLenPdf::29                     126                       # What write queue length does an incoming req see
system.mem_ctrl.wrQLenPdf::30                     126                       # What write queue length does an incoming req see
system.mem_ctrl.wrQLenPdf::31                     126                       # What write queue length does an incoming req see
system.mem_ctrl.wrQLenPdf::32                     126                       # What write queue length does an incoming req see
system.mem_ctrl.wrQLenPdf::33                       0                       # What write queue length does an incoming req see
system.mem_ctrl.wrQLenPdf::34                       0                       # What write queue length does an incoming req see
system.mem_ctrl.wrQLenPdf::35                       0                       # What write queue length does an incoming req see
system.mem_ctrl.wrQLenPdf::36                       0                       # What write queue length does an incoming req see
system.mem_ctrl.wrQLenPdf::37                       0                       # What write queue length does an incoming req see
system.mem_ctrl.wrQLenPdf::38                       0                       # What write queue length does an incoming req see
system.mem_ctrl.wrQLenPdf::39                       0                       # What write queue length does an incoming req see
system.mem_ctrl.wrQLenPdf::40                       0                       # What write queue length does an incoming req see
system.mem_ctrl.wrQLenPdf::41                       0                       # What write queue length does an incoming req see
system.mem_ctrl.wrQLenPdf::42                       0                       # What write queue length does an incoming req see
system.mem_ctrl.wrQLenPdf::43                       0                       # What write queue length does an incoming req see
system.mem_ctrl.wrQLenPdf::44                       0                       # What write queue length does an incoming req see
system.mem_ctrl.wrQLenPdf::45                       0                       # What write queue length does an incoming req see
system.mem_ctrl.wrQLenPdf::46                       0                       # What write queue length does an incoming req see
system.mem_ctrl.wrQLenPdf::47                       0                       # What write queue length does an incoming req see
system.mem_ctrl.wrQLenPdf::48                       0                       # What write queue length does an incoming req see
system.mem_ctrl.wrQLenPdf::49                       0                       # What write queue length does an incoming req see
system.mem_ctrl.wrQLenPdf::50                       0                       # What write queue length does an incoming req see
system.mem_ctrl.wrQLenPdf::51                       0                       # What write queue length does an incoming req see
system.mem_ctrl.wrQLenPdf::52                       0                       # What write queue length does an incoming req see
system.mem_ctrl.wrQLenPdf::53                       0                       # What write queue length does an incoming req see
system.mem_ctrl.wrQLenPdf::54                       0                       # What write queue length does an incoming req see
system.mem_ctrl.wrQLenPdf::55                       0                       # What write queue length does an incoming req see
system.mem_ctrl.wrQLenPdf::56                       0                       # What write queue length does an incoming req see
system.mem_ctrl.wrQLenPdf::57                       0                       # What write queue length does an incoming req see
system.mem_ctrl.wrQLenPdf::58                       0                       # What write queue length does an incoming req see
system.mem_ctrl.wrQLenPdf::59                       0                       # What write queue length does an incoming req see
system.mem_ctrl.wrQLenPdf::60                       0                       # What write queue length does an incoming req see
system.mem_ctrl.wrQLenPdf::61                       0                       # What write queue length does an incoming req see
system.mem_ctrl.wrQLenPdf::62                       0                       # What write queue length does an incoming req see
system.mem_ctrl.wrQLenPdf::63                       0                       # What write queue length does an incoming req see
system.mem_ctrl.bytesPerActivate::samples          671                       # Bytes accessed per row activation
system.mem_ctrl.bytesPerActivate::mean     404.602086                       # Bytes accessed per row activation
system.mem_ctrl.bytesPerActivate::gmean    278.934970                       # Bytes accessed per row activation
system.mem_ctrl.bytesPerActivate::stdev    323.141291                       # Bytes accessed per row activation
system.mem_ctrl.bytesPerActivate::0-127           106     15.80%     15.80% # Bytes accessed per row activation
system.mem_ctrl.bytesPerActivate::128-255          167     24.89%     40.69% # Bytes accessed per row activation
system.mem_ctrl.bytesPerActivate::256-383           98     14.61%     55.29% # Bytes accessed per row activation
system.mem_ctrl.bytesPerActivate::384-511           83     12.37%     67.66% # Bytes accessed per row activation
system.mem_ctrl.bytesPerActivate::512-639           48      7.15%     74.81% # Bytes accessed per row activation
system.mem_ctrl.bytesPerActivate::640-767           29      4.32%     79.14% # Bytes accessed per row activation
system.mem_ctrl.bytesPerActivate::768-895           37      5.51%     84.65% # Bytes accessed per row activation
system.mem_ctrl.bytesPerActivate::896-1023           23      3.43%     88.08% # Bytes accessed per row activation
system.mem_ctrl.bytesPerActivate::1024-1151           80     11.92%    100.00% # Bytes accessed per row activation
system.mem_ctrl.bytesPerActivate::total           671                       # Bytes accessed per row activation
system.mem_ctrl.rdPerTurnAround::samples          126                       # Reads before turning the bus around for writes
system.mem_ctrl.rdPerTurnAround::mean       16.658730                       # Reads before turning the bus around for writes
system.mem_ctrl.rdPerTurnAround::gmean      16.495528                       # Reads before turning the bus around for writes
system.mem_ctrl.rdPerTurnAround::stdev       3.160159                       # Reads before turning the bus around for writes
system.mem_ctrl.rdPerTurnAround::14-15             35     27.78%     27.78% # Reads before turning the bus around for writes
system.mem_ctrl.rdPerTurnAround::16-17             61     48.41%     76.19% # Reads before turning the bus around for writes
system.mem_ctrl.rdPerTurnAround::18-19             29     23.02%     99.21% # Reads before turning the bus around for writes
system.mem_ctrl.rdPerTurnAround::48-49              1      0.79%    100.00% # Reads before turning the bus around for writes
system.mem_ctrl.rdPerTurnAround::total            126                       # Reads before turning the bus around for writes
system.mem_ctrl.wrPerTurnAround::samples          126                       # Writes before turning the bus around for reads
system.mem_ctrl.wrPerTurnAround::mean       17.238095                       # Writes before turning the bus around for reads
system.mem_ctrl.wrPerTurnAround::gmean      17.184578                       # Writes before turning the bus around for reads
system.mem_ctrl.wrPerTurnAround::stdev       1.382338                       # Writes before turning the bus around for reads
system.mem_ctrl.wrPerTurnAround::16                63     50.00%     50.00% # Writes before turning the bus around for reads
system.mem_ctrl.wrPerTurnAround::17                 6      4.76%     54.76% # Writes before turning the bus around for reads
system.mem_ctrl.wrPerTurnAround::18                28     22.22%     76.98% # Writes before turning the bus around for reads
system.mem_ctrl.wrPerTurnAround::19                24     19.05%     96.03% # Writes before turning the bus around for reads
system.mem_ctrl.wrPerTurnAround::20                 3      2.38%     98.41% # Writes before turning the bus around for reads
system.mem_ctrl.wrPerTurnAround::21                 2      1.59%    100.00% # Writes before turning the bus around for reads
system.mem_ctrl.wrPerTurnAround::total            126                       # Writes before turning the bus around for reads
system.mem_ctrl.totQLat                      32801000                       # Total ticks spent queuing
system.mem_ctrl.totMemAccLat                 72157250                       # Total ticks spent from burst creation until serviced by the DRAM
system.mem_ctrl.totBusLat                    10495000                       # Total ticks spent in databus transfers
system.mem_ctrl.avgQLat                      15626.97                       # Average queueing delay per DRAM burst
system.mem_ctrl.avgBusLat                     5000.00                       # Average bus latency per DRAM burst
system.mem_ctrl.avgMemAccLat                 34376.97                       # Average memory access latency per DRAM burst
system.mem_ctrl.avgRdBW                        390.26                       # Average DRAM read bandwidth in MiByte/s
system.mem_ctrl.avgWrBW                        403.83                       # Average achieved write bandwidth in MiByte/s
system.mem_ctrl.avgRdBWSys                    1854.44                       # Average system read bandwidth in MiByte/s
system.mem_ctrl.avgWrBWSys                    1851.46                       # Average system write bandwidth in MiByte/s
system.mem_ctrl.peakBW                       12800.00                       # Theoretical peak bandwidth in MiByte/s
system.mem_ctrl.busUtil                          6.20                       # Data bus utilization in percentage
system.mem_ctrl.busUtilRead                      3.05                       # Data bus utilization in percentage for reads
system.mem_ctrl.busUtilWrite                     3.15                       # Data bus utilization in percentage for writes
system.mem_ctrl.avgRdQLen                        1.00                       # Average read queue length when enqueuing
system.mem_ctrl.avgWrQLen                       25.11                       # Average write queue length when enqueuing
system.mem_ctrl.readRowHits                      1600                       # Number of row buffer hits during reads
system.mem_ctrl.writeRowHits                     1992                       # Number of row buffer hits during writes
system.mem_ctrl.readRowHitRate                  76.23                       # Row buffer hit rate for reads
system.mem_ctrl.writeRowHitRate                 91.04                       # Row buffer hit rate for writes
system.mem_ctrl.avgGap                       17269.57                       # Average gap between requests
system.mem_ctrl.pageHitRate                     83.79                       # Row buffer hit rate, read and write combined
system.mem_ctrl_0.actEnergy                   2777460                       # Energy for activate commands per rank (pJ)
system.mem_ctrl_0.preEnergy                   1464870                       # Energy for precharge commands per rank (pJ)
system.mem_ctrl_0.readEnergy                  8660820                       # Energy for read commands per rank (pJ)
system.mem_ctrl_0.writeEnergy                 6457140                       # Energy for write commands per rank (pJ)
system.mem_ctrl_0.refreshEnergy          27044160.000000                       # Energy for refresh commands per rank (pJ)
system.mem_ctrl_0.actBackEnergy              34298040                       # Energy for active background per rank (pJ)
system.mem_ctrl_0.preBackEnergy                590880                       # Energy for precharge background per rank (pJ)
system.mem_ctrl_0.actPowerDownEnergy        117085410                       # Energy for active power-down per rank (pJ)
system.mem_ctrl_0.prePowerDownEnergy          4109280                       # Energy for precharge power-down per rank (pJ)
system.mem_ctrl_0.selfRefreshEnergy                 0                       # Energy for self refresh per rank (pJ)
system.mem_ctrl_0.totalEnergy               202488060                       # Total energy per rank (pJ)
system.mem_ctrl_0.averagePower             588.249738                       # Core power per rank (mW)
system.mem_ctrl_0.totalIdleTime             267151750                       # Total Idle time Per DRAM Rank
system.mem_ctrl_0.memoryStateTime::IDLE        253000                       # Time in different power states
system.mem_ctrl_0.memoryStateTime::REF       11440000                       # Time in different power states
system.mem_ctrl_0.memoryStateTime::SREF             0                       # Time in different power states
system.mem_ctrl_0.memoryStateTime::PRE_PDN     10697000                       # Time in different power states
system.mem_ctrl_0.memoryStateTime::ACT       65058750                       # Time in different power states
system.mem_ctrl_0.memoryStateTime::ACT_PDN    256772250                       # Time in different power states
system.mem_ctrl_1.actEnergy                   2070600                       # Energy for activate commands per rank (pJ)
system.mem_ctrl_1.preEnergy                   1081575                       # Energy for precharge commands per rank (pJ)
system.mem_ctrl_1.readEnergy                  6326040                       # Energy for read commands per rank (pJ)
system.mem_ctrl_1.writeEnergy                 4859820                       # Energy for write commands per rank (pJ)
system.mem_ctrl_1.refreshEnergy          27044160.000000                       # Energy for refresh commands per rank (pJ)
system.mem_ctrl_1.actBackEnergy              31851600                       # Energy for active background per rank (pJ)
system.mem_ctrl_1.preBackEnergy                766080                       # Energy for precharge background per rank (pJ)
system.mem_ctrl_1.actPowerDownEnergy        116171130                       # Energy for active power-down per rank (pJ)
system.mem_ctrl_1.prePowerDownEnergy          6764160                       # Energy for precharge power-down per rank (pJ)
system.mem_ctrl_1.selfRefreshEnergy                 0                       # Energy for self refresh per rank (pJ)
system.mem_ctrl_1.totalEnergy               196935165                       # Total energy per rank (pJ)
system.mem_ctrl_1.averagePower             572.117976                       # Core power per rank (mW)
system.mem_ctrl_1.totalIdleTime             272372500                       # Total Idle time Per DRAM Rank
system.mem_ctrl_1.memoryStateTime::IDLE        654000                       # Time in different power states
system.mem_ctrl_1.memoryStateTime::REF       11440000                       # Time in different power states
system.mem_ctrl_1.memoryStateTime::SREF             0                       # Time in different power states
system.mem_ctrl_1.memoryStateTime::PRE_PDN     17611500                       # Time in different power states
system.mem_ctrl_1.memoryStateTime::ACT       59754500                       # Time in different power states
system.mem_ctrl_1.memoryStateTime::ACT_PDN    254761000                       # Time in different power states
system.pwrStateResidencyTicks::UNDEFINED    344221000                       # Cumulative time (in ticks) in various power states
system.cache.pwrStateResidencyTicks::UNDEFINED    344221000                       # Cumulative time (in ticks) in various power states
system.cache.hits                                7215                       # Number of hits
system.cache.misses                              9974                       # Number of misses
system.cache.missLatency::samples                9974                       # Ticks for misses to the cache
system.cache.missLatency::mean           32788.449970                       # Ticks for misses to the cache
system.cache.missLatency::gmean          29039.148475                       # Ticks for misses to the cache
system.cache.missLatency::stdev          23386.407546                       # Ticks for misses to the cache
system.cache.missLatency::0-32767                7875     78.96%     78.96% # Ticks for misses to the cache
system.cache.missLatency::32768-65535            1555     15.59%     94.55% # Ticks for misses to the cache
system.cache.missLatency::65536-98303             433      4.34%     98.89% # Ticks for misses to the cache
system.cache.missLatency::98304-131071             32      0.32%     99.21% # Ticks for misses to the cache
system.cache.missLatency::131072-163839            36      0.36%     99.57% # Ticks for misses to the cache
system.cache.missLatency::163840-196607            12      0.12%     99.69% # Ticks for misses to the cache
system.cache.missLatency::196608-229375             5      0.05%     99.74% # Ticks for misses to the cache
system.cache.missLatency::229376-262143             2      0.02%     99.76% # Ticks for misses to the cache
system.cache.missLatency::262144-294911             8      0.08%     99.84% # Ticks for misses to the cache
system.cache.missLatency::294912-327679             9      0.09%     99.93% # Ticks for misses to the cache
system.cache.missLatency::327680-360447             7      0.07%    100.00% # Ticks for misses to the cache
system.cache.missLatency::360448-393215             0      0.00%    100.00% # Ticks for misses to the cache
system.cache.missLatency::393216-425983             0      0.00%    100.00% # Ticks for misses to the cache
system.cache.missLatency::425984-458751             0      0.00%    100.00% # Ticks for misses to the cache
system.cache.missLatency::458752-491519             0      0.00%    100.00% # Ticks for misses to the cache
system.cache.missLatency::491520-524287             0      0.00%    100.00% # Ticks for misses to the cache
system.cache.missLatency::total                  9974                       # Ticks for misses to the cache
system.cache.hitRatio                        0.419745                       # The ratio of hits to the total accesses to the cache
system.cpu.dtb.fetch_hits                           0                       # ITB hits
system.cpu.dtb.fetch_misses                         0                       # ITB misses
system.cpu.dtb.fetch_acv                            0                       # ITB acv
system.cpu.dtb.fetch_accesses                       0                       # ITB accesses
system.cpu.dtb.read_hits                         2627                       # DTB read hits
system.cpu.dtb.read_misses                         10                       # DTB read misses
system.cpu.dtb.read_acv                             0                       # DTB read access violations
system.cpu.dtb.read_accesses                     2637                       # DTB read accesses
system.cpu.dtb.write_hits                        1882                       # DTB write hits
system.cpu.dtb.write_misses                         2                       # DTB write misses
system.cpu.dtb.write_acv                            0                       # DTB write access violations
system.cpu.dtb.write_accesses                    1884                       # DTB write accesses
system.cpu.dtb.data_hits                         4509                       # DTB hits
system.cpu.dtb.data_misses                         12                       # DTB misses
system.cpu.dtb.data_acv                             0                       # DTB access violations
system.cpu.dtb.data_accesses                     4521                       # DTB accesses
system.cpu.itb.fetch_hits                       12681                       # ITB hits
system.cpu.itb.fetch_misses                        24                       # ITB misses
system.cpu.itb.fetch_acv                            0                       # ITB acv
system.cpu.itb.fetch_accesses                   12705                       # ITB accesses
system.cpu.itb.read_hits                            0                       # DTB read hits
system.cpu.itb.read_misses                          0                       # DTB read misses
system.cpu.itb.read_acv                             0                       # DTB read access violations
system.cpu.itb.read_accesses                        0                       # DTB read accesses
system.cpu.itb.write_hits                           0                       # DTB write hits
system.cpu.itb.write_misses                         0                       # DTB write misses
system.cpu.itb.write_acv                            0                       # DTB write access violations
system.cpu.itb.write_accesses                       0                       # DTB write accesses
system.cpu.itb.data_hits                            0                       # DTB hits
system.cpu.itb.data_misses                          0                       # DTB misses
system.cpu.itb.data_acv                             0                       # DTB access violations
system.cpu.itb.data_accesses                        0                       # DTB accesses
system.cpu.workload.numSyscalls                    11                       # Number of system calls
system.cpu.pwrStateResidencyTicks::ON       344221000                       # Cumulative time (in ticks) in various power states
system.cpu.numCycles                           344221                       # number of cpu cycles simulated
system.cpu.numWorkItemsStarted                      0                       # number of work items this cpu started
system.cpu.numWorkItemsCompleted                    0                       # number of work items this cpu completed
system.cpu.committedInsts                       12668                       # Number of instructions committed
system.cpu.committedOps                         12668                       # Number of ops (including micro ops) committed
system.cpu.num_int_alu_accesses                 12547                       # Number of integer alu accesses
system.cpu.num_fp_alu_accesses                     70                       # Number of float alu accesses
system.cpu.num_vec_alu_accesses                     0                       # Number of vector alu accesses
system.cpu.num_func_calls                         405                       # number of times a function call or return occured
system.cpu.num_conditional_control_insts         1332                       # number of instructions that are conditional controls
system.cpu.num_int_insts                        12547                       # number of integer instructions
system.cpu.num_fp_insts                            70                       # number of float instructions
system.cpu.num_vec_insts                            0                       # number of vector instructions
system.cpu.num_int_register_reads               17261                       # number of times the integer registers were read
system.cpu.num_int_register_writes               9102                       # number of times the integer registers were written
system.cpu.num_fp_register_reads                   68                       # number of times the floating registers were read
system.cpu.num_fp_register_writes                   2                       # number of times the floating registers were written
system.cpu.num_vec_register_reads                   0                       # number of times the vector registers were read
system.cpu.num_vec_register_writes                  0                       # number of times the vector registers were written
system.cpu.num_mem_refs                          4521                       # number of memory refs
system.cpu.num_load_insts                        2637                       # Number of load instructions
system.cpu.num_store_insts                       1884                       # Number of store instructions
system.cpu.num_idle_cycles                          0                       # Number of idle cycles
system.cpu.num_busy_cycles                     344221                       # Number of busy cycles
system.cpu.not_idle_fraction                        1                       # Percentage of non-idle cycles
system.cpu.idle_fraction                            0                       # Percentage of idle cycles
system.cpu.Branches                              1857                       # Number of branches fetched
system.cpu.op_class::No_OpClass                    22      0.17%      0.17% # Class of executed instruction
system.cpu.op_class::IntAlu                      8096     63.85%     64.02% # Class of executed instruction
system.cpu.op_class::IntMult                       39      0.31%     64.33% # Class of executed instruction
system.cpu.op_class::IntDiv                         0      0.00%     64.33% # Class of executed instruction
system.cpu.op_class::FloatAdd                       2      0.02%     64.35% # Class of executed instruction
system.cpu.op_class::FloatCmp                       0      0.00%     64.35% # Class of executed instruction
system.cpu.op_class::FloatCvt                       0      0.00%     64.35% # Class of executed instruction
system.cpu.op_class::FloatMult                      0      0.00%     64.35% # Class of executed instruction
system.cpu.op_class::FloatMultAcc                   0      0.00%     64.35% # Class of executed instruction
system.cpu.op_class::FloatDiv                       0      0.00%     64.35% # Class of executed instruction
system.cpu.op_class::FloatMisc                      0      0.00%     64.35% # Class of executed instruction
system.cpu.op_class::FloatSqrt                      0      0.00%     64.35% # Class of executed instruction
system.cpu.op_class::SimdAdd                        0      0.00%     64.35% # Class of executed instruction
system.cpu.op_class::SimdAddAcc                     0      0.00%     64.35% # Class of executed instruction
system.cpu.op_class::SimdAlu                        0      0.00%     64.35% # Class of executed instruction
system.cpu.op_class::SimdCmp                        0      0.00%     64.35% # Class of executed instruction
system.cpu.op_class::SimdCvt                        0      0.00%     64.35% # Class of executed instruction
system.cpu.op_class::SimdMisc                       0      0.00%     64.35% # Class of executed instruction
system.cpu.op_class::SimdMult                       0      0.00%     64.35% # Class of executed instruction
system.cpu.op_class::SimdMultAcc                    0      0.00%     64.35% # Class of executed instruction
system.cpu.op_class::SimdShift                      0      0.00%     64.35% # Class of executed instruction
system.cpu.op_class::SimdShiftAcc                   0      0.00%     64.35% # Class of executed instruction
system.cpu.op_class::SimdSqrt                       0      0.00%     64.35% # Class of executed instruction
system.cpu.op_class::SimdFloatAdd                   0      0.00%     64.35% # Class of executed instruction
system.cpu.op_class::SimdFloatAlu                   0      0.00%     64.35% # Class of executed instruction
system.cpu.op_class::SimdFloatCmp                   0      0.00%     64.35% # Class of executed instruction
system.cpu.op_class::SimdFloatCvt                   0      0.00%     64.35% # Class of executed instruction
system.cpu.op_class::SimdFloatDiv                   0      0.00%     64.35% # Class of executed instruction
system.cpu.op_class::SimdFloatMisc                  0      0.00%     64.35% # Class of executed instruction
system.cpu.op_class::SimdFloatMult                  0      0.00%     64.35% # Class of executed instruction
system.cpu.op_class::SimdFloatMultAcc               0      0.00%     64.35% # Class of executed instruction
system.cpu.op_class::SimdFloatSqrt                  0      0.00%     64.35% # Class of executed instruction
system.cpu.op_class::MemRead                     2636     20.79%     85.13% # Class of executed instruction
system.cpu.op_class::MemWrite                    1817     14.33%     99.46% # Class of executed instruction
system.cpu.op_class::FloatMemRead                   1      0.01%     99.47% # Class of executed instruction
system.cpu.op_class::FloatMemWrite                 67      0.53%    100.00% # Class of executed instruction
system.cpu.op_class::IprAccess                      0      0.00%    100.00% # Class of executed instruction
system.cpu.op_class::InstPrefetch                   0      0.00%    100.00% # Class of executed instruction
system.cpu.op_class::total                      12680                       # Class of executed instruction
system.membus.snoop_filter.tot_requests             0                       # Total number of requests made to the snoop filter.
system.membus.snoop_filter.hit_single_requests            0                       # Number of requests hitting in the snoop filter with a single holder of the requested data.
system.membus.snoop_filter.hit_multi_requests            0                       # Number of requests hitting in the snoop filter with multiple (>1) holders of the requested data.
system.membus.snoop_filter.tot_snoops               0                       # Total number of snoops made to the snoop filter.
system.membus.snoop_filter.hit_single_snoops            0                       # Number of snoops hitting in the snoop filter with a single holder of the requested data.
system.membus.snoop_filter.hit_multi_snoops            0                       # Number of snoops hitting in the snoop filter with multiple (>1) holders of the requested data.
system.membus.pwrStateResidencyTicks::UNDEFINED    344221000                       # Cumulative time (in ticks) in various power states
system.membus.trans_dist::ReadReq                9974                       # Transaction distribution
system.membus.trans_dist::ReadResp               9974                       # Transaction distribution
system.membus.trans_dist::WritebackDirty         9958                       # Transaction distribution
system.membus.pkt_count_system.cache.mem_side::system.mem_ctrl.port        29906                       # Packet count per connected master and slave (bytes)
system.membus.pkt_count::total                  29906                       # Packet count per connected master and slave (bytes)
system.membus.pkt_size_system.cache.mem_side::system.mem_ctrl.port      1275648                       # Cumulative packet size per connected master and slave (bytes)
system.membus.pkt_size::total                 1275648                       # Cumulative packet size per connected master and slave (bytes)
system.membus.snoops                                0                       # Total snoops (count)
system.membus.snoopTraffic                          0                       # Total snoop traffic (bytes)
system.membus.snoop_fanout::samples              9974                       # Request fanout histogram
system.membus.snoop_fanout::mean                    0                       # Request fanout histogram
system.membus.snoop_fanout::stdev                   0                       # Request fanout histogram
system.membus.snoop_fanout::underflows              0      0.00%      0.00% # Request fanout histogram
system.membus.snoop_fanout::0                    9974    100.00%    100.00% # Request fanout histogram
system.membus.snoop_fanout::overflows               0      0.00%    100.00% # Request fanout histogram
system.membus.snoop_fanout::min_value               0                       # Request fanout histogram
system.membus.snoop_fanout::max_value               0                       # Request fanout histogram
system.membus.snoop_fanout::total                9974                       # Request fanout histogram
system.membus.reqLayer0.occupancy            59764000                       # Layer occupancy (ticks)
system.membus.reqLayer0.utilization              17.4                       # Layer utilization (%)
system.membus.respLayer0.occupancy           50534750                       # Layer occupancy (ticks)
system.membus.respLayer0.utilization             14.7                       # Layer utilization (%)

---------- End Simulation Statistics   ----------
