
---------- Begin Simulation Statistics ----------
sim_seconds                                  0.000101                       # Number of seconds simulated
sim_ticks                                   100674000                       # Number of ticks simulated
final_tick                                  100674000                       # Number of ticks from beginning of simulation (restored from checkpoints and never reset)
sim_freq                                 1000000000000                       # Frequency of simulated ticks
host_inst_rate                                 473259                       # Simulator instruction rate (inst/s)
host_op_rate                                   473091                       # Simulator op (including micro ops) rate (op/s)
host_tick_rate                             3982515131                       # Simulator tick rate (ticks/s)
host_mem_usage                                6706324                       # Number of bytes of host memory used
host_seconds                                     0.03                       # Real time elapsed on the host
sim_insts                                       11955                       # Number of instructions simulated
sim_ops                                         11955                       # Number of ops (including micro ops) simulated
system.clk_domain.voltage_domain.voltage            1                       # Voltage in Volts
system.clk_domain.clock                          1000                       # Clock period in ticks
system.mem_ctrl.pwrStateResidencyTicks::UNDEFINED    100674000                       # Cumulative time (in ticks) in various power states
system.mem_ctrl.bytes_read::cpu.inst            47680                       # Number of bytes read from this memory
system.mem_ctrl.bytes_read::cpu.data            56448                       # Number of bytes read from this memory
system.mem_ctrl.bytes_read::total              104128                       # Number of bytes read from this memory
system.mem_ctrl.bytes_inst_read::cpu.inst        47680                       # Number of instructions bytes read from this memory
system.mem_ctrl.bytes_inst_read::total          47680                       # Number of instructions bytes read from this memory
system.mem_ctrl.bytes_written::writebacks       103104                       # Number of bytes written to this memory
system.mem_ctrl.bytes_written::total           103104                       # Number of bytes written to this memory
system.mem_ctrl.num_reads::cpu.inst               745                       # Number of read requests responded to by this memory
system.mem_ctrl.num_reads::cpu.data               882                       # Number of read requests responded to by this memory
system.mem_ctrl.num_reads::total                 1627                       # Number of read requests responded to by this memory
system.mem_ctrl.num_writes::writebacks           1611                       # Number of write requests responded to by this memory
system.mem_ctrl.num_writes::total                1611                       # Number of write requests responded to by this memory
system.mem_ctrl.bw_read::cpu.inst           473607883                       # Total read bandwidth from this memory (bytes/s)
system.mem_ctrl.bw_read::cpu.data           560700876                       # Total read bandwidth from this memory (bytes/s)
system.mem_ctrl.bw_read::total             1034308759                       # Total read bandwidth from this memory (bytes/s)
system.mem_ctrl.bw_inst_read::cpu.inst      473607883                       # Instruction read bandwidth from this memory (bytes/s)
system.mem_ctrl.bw_inst_read::total         473607883                       # Instruction read bandwidth from this memory (bytes/s)
system.mem_ctrl.bw_write::writebacks       1024137315                       # Write bandwidth from this memory (bytes/s)
system.mem_ctrl.bw_write::total            1024137315                       # Write bandwidth from this memory (bytes/s)
system.mem_ctrl.bw_total::writebacks       1024137315                       # Total bandwidth to/from this memory (bytes/s)
system.mem_ctrl.bw_total::cpu.inst          473607883                       # Total bandwidth to/from this memory (bytes/s)
system.mem_ctrl.bw_total::cpu.data          560700876                       # Total bandwidth to/from this memory (bytes/s)
system.mem_ctrl.bw_total::total            2058446073                       # Total bandwidth to/from this memory (bytes/s)
system.mem_ctrl.readReqs                         1627                       # Number of read requests accepted
system.mem_ctrl.writeReqs                        1611                       # Number of write requests accepted
system.mem_ctrl.readBursts                       1627                       # Number of DRAM read bursts, including those serviced by the write queue
system.mem_ctrl.writeBursts                      1611                       # Number of DRAM write bursts, including those merged in the write queue
system.mem_ctrl.bytesReadDRAM                   68736                       # Total number of bytes read from DRAM
system.mem_ctrl.bytesReadWrQ                    35392                       # Total number of bytes read from write queue
system.mem_ctrl.bytesWritten                    77184                       # Total number of bytes written to DRAM
system.mem_ctrl.bytesReadSys                   104128                       # Total read bytes from the system interface side
system.mem_ctrl.bytesWrittenSys                103104                       # Total written bytes from the system interface side
system.mem_ctrl.servicedByWrQ                     553                       # Number of DRAM read bursts serviced by the write queue
system.mem_ctrl.mergedWrBursts                    381                       # Number of DRAM write bursts merged with an existing one
system.mem_ctrl.neitherReadNorWriteReqs             0                       # Number of requests that are neither read nor write
system.mem_ctrl.perBankRdBursts::0                 85                       # Per bank write bursts
system.mem_ctrl.perBankRdBursts::1                 24                       # Per bank write bursts
system.mem_ctrl.perBankRdBursts::2                218                       # Per bank write bursts
system.mem_ctrl.perBankRdBursts::3                165                       # Per bank write bursts
system.mem_ctrl.perBankRdBursts::4                103                       # Per bank write bursts
system.mem_ctrl.perBankRdBursts::5                 34                       # Per bank write bursts
system.mem_ctrl.perBankRdBursts::6                 81                       # Per bank write bursts
system.mem_ctrl.perBankRdBursts::7                 10                       # Per bank write bursts
system.mem_ctrl.perBankRdBursts::8                  3                       # Per bank write bursts
system.mem_ctrl.perBankRdBursts::9                158                       # Per bank write bursts
system.mem_ctrl.perBankRdBursts::10                10                       # Per bank write bursts
system.mem_ctrl.perBankRdBursts::11                23                       # Per bank write bursts
system.mem_ctrl.perBankRdBursts::12                 4                       # Per bank write bursts
system.mem_ctrl.perBankRdBursts::13                38                       # Per bank write bursts
system.mem_ctrl.perBankRdBursts::14                79                       # Per bank write bursts
system.mem_ctrl.perBankRdBursts::15                39                       # Per bank write bursts
system.mem_ctrl.perBankWrBursts::0                100                       # Per bank write bursts
system.mem_ctrl.perBankWrBursts::1                 24                       # Per bank write bursts
system.mem_ctrl.perBankWrBursts::2                242                       # Per bank write bursts
system.mem_ctrl.perBankWrBursts::3                180                       # Per bank write bursts
system.mem_ctrl.perBankWrBursts::4                115                       # Per bank write bursts
system.mem_ctrl.perBankWrBursts::5                 39                       # Per bank write bursts
system.mem_ctrl.perBankWrBursts::6                 85                       # Per bank write bursts
system.mem_ctrl.perBankWrBursts::7                 12                       # Per bank write bursts
system.mem_ctrl.perBankWrBursts::8                  4                       # Per bank write bursts
system.mem_ctrl.perBankWrBursts::9                208                       # Per bank write bursts
system.mem_ctrl.perBankWrBursts::10                11                       # Per bank write bursts
system.mem_ctrl.perBankWrBursts::11                25                       # Per bank write bursts
system.mem_ctrl.perBankWrBursts::12                 4                       # Per bank write bursts
system.mem_ctrl.perBankWrBursts::13                38                       # Per bank write bursts
system.mem_ctrl.perBankWrBursts::14                75                       # Per bank write bursts
system.mem_ctrl.perBankWrBursts::15                44                       # Per bank write bursts
system.mem_ctrl.numRdRetry                          0                       # Number of times read queue was full causing retry
system.mem_ctrl.numWrRetry                          0                       # Number of times write queue was full causing retry
system.mem_ctrl.totGap                      100667000                       # Total gap between requests
system.mem_ctrl.readPktSize::0                      0                       # Read request sizes (log2)
system.mem_ctrl.readPktSize::1                      0                       # Read request sizes (log2)
system.mem_ctrl.readPktSize::2                      0                       # Read request sizes (log2)
system.mem_ctrl.readPktSize::3                      0                       # Read request sizes (log2)
system.mem_ctrl.readPktSize::4                      0                       # Read request sizes (log2)
system.mem_ctrl.readPktSize::5                      0                       # Read request sizes (log2)
system.mem_ctrl.readPktSize::6                   1627                       # Read request sizes (log2)
system.mem_ctrl.writePktSize::0                     0                       # Write request sizes (log2)
system.mem_ctrl.writePktSize::1                     0                       # Write request sizes (log2)
system.mem_ctrl.writePktSize::2                     0                       # Write request sizes (log2)
system.mem_ctrl.writePktSize::3                     0                       # Write request sizes (log2)
system.mem_ctrl.writePktSize::4                     0                       # Write request sizes (log2)
system.mem_ctrl.writePktSize::5                     0                       # Write request sizes (log2)
system.mem_ctrl.writePktSize::6                  1611                       # Write request sizes (log2)
system.mem_ctrl.rdQLenPdf::0                     1074                       # What read queue length does an incoming req see
system.mem_ctrl.rdQLenPdf::1                        0                       # What read queue length does an incoming req see
system.mem_ctrl.rdQLenPdf::2                        0                       # What read queue length does an incoming req see
system.mem_ctrl.rdQLenPdf::3                        0                       # What read queue length does an incoming req see
system.mem_ctrl.rdQLenPdf::4                        0                       # What read queue length does an incoming req see
system.mem_ctrl.rdQLenPdf::5                        0                       # What read queue length does an incoming req see
system.mem_ctrl.rdQLenPdf::6                        0                       # What read queue length does an incoming req see
system.mem_ctrl.rdQLenPdf::7                        0                       # What read queue length does an incoming req see
system.mem_ctrl.rdQLenPdf::8                        0                       # What read queue length does an incoming req see
system.mem_ctrl.rdQLenPdf::9                        0                       # What read queue length does an incoming req see
system.mem_ctrl.rdQLenPdf::10                       0                       # What read queue length does an incoming req see
system.mem_ctrl.rdQLenPdf::11                       0                       # What read queue length does an incoming req see
system.mem_ctrl.rdQLenPdf::12                       0                       # What read queue length does an incoming req see
system.mem_ctrl.rdQLenPdf::13                       0                       # What read queue length does an incoming req see
system.mem_ctrl.rdQLenPdf::14                       0                       # What read queue length does an incoming req see
system.mem_ctrl.rdQLenPdf::15                       0                       # What read queue length does an incoming req see
system.mem_ctrl.rdQLenPdf::16                       0                       # What read queue length does an incoming req see
system.mem_ctrl.rdQLenPdf::17                       0                       # What read queue length does an incoming req see
system.mem_ctrl.rdQLenPdf::18                       0                       # What read queue length does an incoming req see
system.mem_ctrl.rdQLenPdf::19                       0                       # What read queue length does an incoming req see
system.mem_ctrl.rdQLenPdf::20                       0                       # What read queue length does an incoming req see
system.mem_ctrl.rdQLenPdf::21                       0                       # What read queue length does an incoming req see
system.mem_ctrl.rdQLenPdf::22                       0                       # What read queue length does an incoming req see
system.mem_ctrl.rdQLenPdf::23                       0                       # What read queue length does an incoming req see
system.mem_ctrl.rdQLenPdf::24                       0                       # What read queue length does an incoming req see
system.mem_ctrl.rdQLenPdf::25                       0                       # What read queue length does an incoming req see
system.mem_ctrl.rdQLenPdf::26                       0                       # What read queue length does an incoming req see
system.mem_ctrl.rdQLenPdf::27                       0                       # What read queue length does an incoming req see
system.mem_ctrl.rdQLenPdf::28                       0                       # What read queue length does an incoming req see
system.mem_ctrl.rdQLenPdf::29                       0                       # What read queue length does an incoming req see
system.mem_ctrl.rdQLenPdf::30                       0                       # What read queue length does an incoming req see
system.mem_ctrl.rdQLenPdf::31                       0                       # What read queue length does an incoming req see
system.mem_ctrl.wrQLenPdf::0                        1                       # What write queue length does an incoming req see
system.mem_ctrl.wrQLenPdf::1                        1                       # What write queue length does an incoming req see
system.mem_ctrl.wrQLenPdf::2                        1                       # What write queue length does an incoming req see
system.mem_ctrl.wrQLenPdf::3                        1                       # What write queue length does an incoming req see
system.mem_ctrl.wrQLenPdf::4                        1                       # What write queue length does an incoming req see
system.mem_ctrl.wrQLenPdf::5                        1                       # What write queue length does an incoming req see
system.mem_ctrl.wrQLenPdf::6                        1                       # What write queue length does an incoming req see
system.mem_ctrl.wrQLenPdf::7                        1                       # What write queue length does an incoming req see
system.mem_ctrl.wrQLenPdf::8                        1                       # What write queue length does an incoming req see
system.mem_ctrl.wrQLenPdf::9                        1                       # What write queue length does an incoming req see
system.mem_ctrl.wrQLenPdf::10                       1                       # What write queue length does an incoming req see
system.mem_ctrl.wrQLenPdf::11                       1                       # What write queue length does an incoming req see
system.mem_ctrl.wrQLenPdf::12                       1                       # What write queue length does an incoming req see
system.mem_ctrl.wrQLenPdf::13                       1                       # What write queue length does an incoming req see
system.mem_ctrl.wrQLenPdf::14                       1                       # What write queue length does an incoming req see
system.mem_ctrl.wrQLenPdf::15                       8                       # What write queue length does an incoming req see
system.mem_ctrl.wrQLenPdf::16                      10                       # What write queue length does an incoming req see
system.mem_ctrl.wrQLenPdf::17                      58                       # What write queue length does an incoming req see
system.mem_ctrl.wrQLenPdf::18                      70                       # What write queue length does an incoming req see
system.mem_ctrl.wrQLenPdf::19                      76                       # What write queue length does an incoming req see
system.mem_ctrl.wrQLenPdf::20                      79                       # What write queue length does an incoming req see
system.mem_ctrl.wrQLenPdf::21                      74                       # What write queue length does an incoming req see
system.mem_ctrl.wrQLenPdf::22                      78                       # What write queue length does an incoming req see
system.mem_ctrl.wrQLenPdf::23                      87                       # What write queue length does an incoming req see
system.mem_ctrl.wrQLenPdf::24                      79                       # What write queue length does an incoming req see
system.mem_ctrl.wrQLenPdf::25                      74                       # What write queue length does an incoming req see
system.mem_ctrl.wrQLenPdf::26                      74                       # What write queue length does an incoming req see
system.mem_ctrl.wrQLenPdf::27                      74                       # What write queue length does an incoming req see
system.mem_ctrl.wrQLenPdf::28                      74                       # What write queue length does an incoming req see
system.mem_ctrl.wrQLenPdf::29                      74                       # What write queue length does an incoming req see
system.mem_ctrl.wrQLenPdf::30                      74                       # What write queue length does an incoming req see
system.mem_ctrl.wrQLenPdf::31                      74                       # What write queue length does an incoming req see
system.mem_ctrl.wrQLenPdf::32                      74                       # What write queue length does an incoming req see
system.mem_ctrl.wrQLenPdf::33                       2                       # What write queue length does an incoming req see
system.mem_ctrl.wrQLenPdf::34                       1                       # What write queue length does an incoming req see
system.mem_ctrl.wrQLenPdf::35                       1                       # What write queue length does an incoming req see
system.mem_ctrl.wrQLenPdf::36                       0                       # What write queue length does an incoming req see
system.mem_ctrl.wrQLenPdf::37                       0                       # What write queue length does an incoming req see
system.mem_ctrl.wrQLenPdf::38                       0                       # What write queue length does an incoming req see
system.mem_ctrl.wrQLenPdf::39                       0                       # What write queue length does an incoming req see
system.mem_ctrl.wrQLenPdf::40                       0                       # What write queue length does an incoming req see
system.mem_ctrl.wrQLenPdf::41                       0                       # What write queue length does an incoming req see
system.mem_ctrl.wrQLenPdf::42                       0                       # What write queue length does an incoming req see
system.mem_ctrl.wrQLenPdf::43                       0                       # What write queue length does an incoming req see
system.mem_ctrl.wrQLenPdf::44                       0                       # What write queue length does an incoming req see
system.mem_ctrl.wrQLenPdf::45                       0                       # What write queue length does an incoming req see
system.mem_ctrl.wrQLenPdf::46                       0                       # What write queue length does an incoming req see
system.mem_ctrl.wrQLenPdf::47                       0                       # What write queue length does an incoming req see
system.mem_ctrl.wrQLenPdf::48                       0                       # What write queue length does an incoming req see
system.mem_ctrl.wrQLenPdf::49                       0                       # What write queue length does an incoming req see
system.mem_ctrl.wrQLenPdf::50                       0                       # What write queue length does an incoming req see
system.mem_ctrl.wrQLenPdf::51                       0                       # What write queue length does an incoming req see
system.mem_ctrl.wrQLenPdf::52                       0                       # What write queue length does an incoming req see
system.mem_ctrl.wrQLenPdf::53                       0                       # What write queue length does an incoming req see
system.mem_ctrl.wrQLenPdf::54                       0                       # What write queue length does an incoming req see
system.mem_ctrl.wrQLenPdf::55                       0                       # What write queue length does an incoming req see
system.mem_ctrl.wrQLenPdf::56                       0                       # What write queue length does an incoming req see
system.mem_ctrl.wrQLenPdf::57                       0                       # What write queue length does an incoming req see
system.mem_ctrl.wrQLenPdf::58                       0                       # What write queue length does an incoming req see
system.mem_ctrl.wrQLenPdf::59                       0                       # What write queue length does an incoming req see
system.mem_ctrl.wrQLenPdf::60                       0                       # What write queue length does an incoming req see
system.mem_ctrl.wrQLenPdf::61                       0                       # What write queue length does an incoming req see
system.mem_ctrl.wrQLenPdf::62                       0                       # What write queue length does an incoming req see
system.mem_ctrl.wrQLenPdf::63                       0                       # What write queue length does an incoming req see
system.mem_ctrl.bytesPerActivate::samples          311                       # Bytes accessed per row activation
system.mem_ctrl.bytesPerActivate::mean     455.614148                       # Bytes accessed per row activation
system.mem_ctrl.bytesPerActivate::gmean    290.157122                       # Bytes accessed per row activation
system.mem_ctrl.bytesPerActivate::stdev    370.348265                       # Bytes accessed per row activation
system.mem_ctrl.bytesPerActivate::0-127            70     22.51%     22.51% # Bytes accessed per row activation
system.mem_ctrl.bytesPerActivate::128-255           57     18.33%     40.84% # Bytes accessed per row activation
system.mem_ctrl.bytesPerActivate::256-383           33     10.61%     51.45% # Bytes accessed per row activation
system.mem_ctrl.bytesPerActivate::384-511           32     10.29%     61.74% # Bytes accessed per row activation
system.mem_ctrl.bytesPerActivate::512-639           20      6.43%     68.17% # Bytes accessed per row activation
system.mem_ctrl.bytesPerActivate::640-767            9      2.89%     71.06% # Bytes accessed per row activation
system.mem_ctrl.bytesPerActivate::768-895           13      4.18%     75.24% # Bytes accessed per row activation
system.mem_ctrl.bytesPerActivate::896-1023           12      3.86%     79.10% # Bytes accessed per row activation
system.mem_ctrl.bytesPerActivate::1024-1151           65     20.90%    100.00% # Bytes accessed per row activation
system.mem_ctrl.bytesPerActivate::total           311                       # Bytes accessed per row activation
system.mem_ctrl.rdPerTurnAround::samples           74                       # Reads before turning the bus around for writes
system.mem_ctrl.rdPerTurnAround::mean       14.513514                       # Reads before turning the bus around for writes
system.mem_ctrl.rdPerTurnAround::gmean      14.037042                       # Reads before turning the bus around for writes
system.mem_ctrl.rdPerTurnAround::stdev       4.491219                       # Reads before turning the bus around for writes
system.mem_ctrl.rdPerTurnAround::6-7                2      2.70%      2.70% # Reads before turning the bus around for writes
system.mem_ctrl.rdPerTurnAround::8-9                2      2.70%      5.41% # Reads before turning the bus around for writes
system.mem_ctrl.rdPerTurnAround::10-11              5      6.76%     12.16% # Reads before turning the bus around for writes
system.mem_ctrl.rdPerTurnAround::12-13             22     29.73%     41.89% # Reads before turning the bus around for writes
system.mem_ctrl.rdPerTurnAround::14-15             18     24.32%     66.22% # Reads before turning the bus around for writes
system.mem_ctrl.rdPerTurnAround::16-17             20     27.03%     93.24% # Reads before turning the bus around for writes
system.mem_ctrl.rdPerTurnAround::18-19              3      4.05%     97.30% # Reads before turning the bus around for writes
system.mem_ctrl.rdPerTurnAround::22-23              1      1.35%     98.65% # Reads before turning the bus around for writes
system.mem_ctrl.rdPerTurnAround::44-45              1      1.35%    100.00% # Reads before turning the bus around for writes
system.mem_ctrl.rdPerTurnAround::total             74                       # Reads before turning the bus around for writes
system.mem_ctrl.wrPerTurnAround::samples           73                       # Writes before turning the bus around for reads
system.mem_ctrl.wrPerTurnAround::mean       16.383562                       # Writes before turning the bus around for reads
system.mem_ctrl.wrPerTurnAround::gmean      16.354322                       # Writes before turning the bus around for reads
system.mem_ctrl.wrPerTurnAround::stdev       1.035886                       # Writes before turning the bus around for reads
system.mem_ctrl.wrPerTurnAround::16                63     86.30%     86.30% # Writes before turning the bus around for reads
system.mem_ctrl.wrPerTurnAround::17                 1      1.37%     87.67% # Writes before turning the bus around for reads
system.mem_ctrl.wrPerTurnAround::18                 3      4.11%     91.78% # Writes before turning the bus around for reads
system.mem_ctrl.wrPerTurnAround::19                 3      4.11%     95.89% # Writes before turning the bus around for reads
system.mem_ctrl.wrPerTurnAround::20                 3      4.11%    100.00% # Writes before turning the bus around for reads
system.mem_ctrl.wrPerTurnAround::total             73                       # Writes before turning the bus around for reads
system.mem_ctrl.totQLat                      18049000                       # Total ticks spent queuing
system.mem_ctrl.totMemAccLat                 38186500                       # Total ticks spent from burst creation until serviced by the DRAM
system.mem_ctrl.totBusLat                     5370000                       # Total ticks spent in databus transfers
system.mem_ctrl.avgQLat                      16805.40                       # Average queueing delay per DRAM burst
system.mem_ctrl.avgBusLat                     5000.00                       # Average bus latency per DRAM burst
system.mem_ctrl.avgMemAccLat                 35555.40                       # Average memory access latency per DRAM burst
system.mem_ctrl.avgRdBW                        682.76                       # Average DRAM read bandwidth in MiByte/s
system.mem_ctrl.avgWrBW                        766.67                       # Average achieved write bandwidth in MiByte/s
system.mem_ctrl.avgRdBWSys                    1034.31                       # Average system read bandwidth in MiByte/s
system.mem_ctrl.avgWrBWSys                    1024.14                       # Average system write bandwidth in MiByte/s
system.mem_ctrl.peakBW                       12800.00                       # Theoretical peak bandwidth in MiByte/s
system.mem_ctrl.busUtil                         11.32                       # Data bus utilization in percentage
system.mem_ctrl.busUtilRead                      5.33                       # Data bus utilization in percentage for reads
system.mem_ctrl.busUtilWrite                     5.99                       # Data bus utilization in percentage for writes
system.mem_ctrl.avgRdQLen                        1.00                       # Average read queue length when enqueuing
system.mem_ctrl.avgWrQLen                       25.43                       # Average write queue length when enqueuing
system.mem_ctrl.readRowHits                       828                       # Number of row buffer hits during reads
system.mem_ctrl.writeRowHits                     1129                       # Number of row buffer hits during writes
system.mem_ctrl.readRowHitRate                  77.09                       # Row buffer hit rate for reads
system.mem_ctrl.writeRowHitRate                 91.79                       # Row buffer hit rate for writes
system.mem_ctrl.avgGap                       31089.25                       # Average gap between requests
system.mem_ctrl.pageHitRate                     84.94                       # Row buffer hit rate, read and write combined
system.mem_ctrl_0.actEnergy                   1756440                       # Energy for activate commands per rank (pJ)
system.mem_ctrl_0.preEnergy                    910800                       # Energy for precharge commands per rank (pJ)
system.mem_ctrl_0.readEnergy                  5140800                       # Energy for read commands per rank (pJ)
system.mem_ctrl_0.writeEnergy                 4160340                       # Energy for write commands per rank (pJ)
system.mem_ctrl_0.refreshEnergy          7375680.000000                       # Energy for refresh commands per rank (pJ)
system.mem_ctrl_0.actBackEnergy              18469710                       # Energy for active background per rank (pJ)
system.mem_ctrl_0.preBackEnergy                154080                       # Energy for precharge background per rank (pJ)
system.mem_ctrl_0.actPowerDownEnergy         27073290                       # Energy for active power-down per rank (pJ)
system.mem_ctrl_0.prePowerDownEnergy           153120                       # Energy for precharge power-down per rank (pJ)
system.mem_ctrl_0.selfRefreshEnergy                 0                       # Energy for self refresh per rank (pJ)
system.mem_ctrl_0.totalEnergy                65194260                       # Total energy per rank (pJ)
system.mem_ctrl_0.averagePower             647.571492                       # Core power per rank (mW)
system.mem_ctrl_0.totalIdleTime              59768500                       # Total Idle time Per DRAM Rank
system.mem_ctrl_0.memoryStateTime::IDLE         55000                       # Time in different power states
system.mem_ctrl_0.memoryStateTime::REF        3120000                       # Time in different power states
system.mem_ctrl_0.memoryStateTime::SREF             0                       # Time in different power states
system.mem_ctrl_0.memoryStateTime::PRE_PDN       398500                       # Time in different power states
system.mem_ctrl_0.memoryStateTime::ACT       37730500                       # Time in different power states
system.mem_ctrl_0.memoryStateTime::ACT_PDN     59370000                       # Time in different power states
system.mem_ctrl_1.actEnergy                    549780                       # Energy for activate commands per rank (pJ)
system.mem_ctrl_1.preEnergy                    269445                       # Energy for precharge commands per rank (pJ)
system.mem_ctrl_1.readEnergy                  2527560                       # Energy for read commands per rank (pJ)
system.mem_ctrl_1.writeEnergy                 2108880                       # Energy for write commands per rank (pJ)
system.mem_ctrl_1.refreshEnergy          7375680.000000                       # Energy for refresh commands per rank (pJ)
system.mem_ctrl_1.actBackEnergy              11956890                       # Energy for active background per rank (pJ)
system.mem_ctrl_1.preBackEnergy                363840                       # Energy for precharge background per rank (pJ)
system.mem_ctrl_1.actPowerDownEnergy         30281250                       # Energy for active power-down per rank (pJ)
system.mem_ctrl_1.prePowerDownEnergy          2726400                       # Energy for precharge power-down per rank (pJ)
system.mem_ctrl_1.selfRefreshEnergy                 0                       # Energy for self refresh per rank (pJ)
system.mem_ctrl_1.totalEnergy                58159725                       # Total energy per rank (pJ)
system.mem_ctrl_1.averagePower             577.697790                       # Core power per rank (mW)
system.mem_ctrl_1.totalIdleTime              73509500                       # Total Idle time Per DRAM Rank
system.mem_ctrl_1.memoryStateTime::IDLE        506500                       # Time in different power states
system.mem_ctrl_1.memoryStateTime::REF        3120000                       # Time in different power states
system.mem_ctrl_1.memoryStateTime::SREF             0                       # Time in different power states
system.mem_ctrl_1.memoryStateTime::PRE_PDN      7095250                       # Time in different power states
system.mem_ctrl_1.memoryStateTime::ACT       23538000                       # Time in different power states
system.mem_ctrl_1.memoryStateTime::ACT_PDN     66414250                       # Time in different power states
system.pwrStateResidencyTicks::UNDEFINED    100674000                       # Cumulative time (in ticks) in various power states
system.cache.pwrStateResidencyTicks::UNDEFINED    100674000                       # Cumulative time (in ticks) in various power states
system.cache.hits                               15076                       # Number of hits
system.cache.misses                              1627                       # Number of misses
system.cache.missLatency::samples                1627                       # Ticks for misses to the cache
system.cache.missLatency::mean           51610.940381                       # Ticks for misses to the cache
system.cache.missLatency::gmean          43844.930823                       # Ticks for misses to the cache
system.cache.missLatency::stdev          33203.727666                       # Ticks for misses to the cache
system.cache.missLatency::0-32767                 553     33.99%     33.99% # Ticks for misses to the cache
system.cache.missLatency::32768-65535             805     49.48%     83.47% # Ticks for misses to the cache
system.cache.missLatency::65536-98303             194     11.92%     95.39% # Ticks for misses to the cache
system.cache.missLatency::98304-131071             22      1.35%     96.74% # Ticks for misses to the cache
system.cache.missLatency::131072-163839            31      1.91%     98.65% # Ticks for misses to the cache
system.cache.missLatency::163840-196607            11      0.68%     99.32% # Ticks for misses to the cache
system.cache.missLatency::196608-229375             2      0.12%     99.45% # Ticks for misses to the cache
system.cache.missLatency::229376-262143             2      0.12%     99.57% # Ticks for misses to the cache
system.cache.missLatency::262144-294911             3      0.18%     99.75% # Ticks for misses to the cache
system.cache.missLatency::294912-327679             3      0.18%     99.94% # Ticks for misses to the cache
system.cache.missLatency::327680-360447             1      0.06%    100.00% # Ticks for misses to the cache
system.cache.missLatency::360448-393215             0      0.00%    100.00% # Ticks for misses to the cache
system.cache.missLatency::393216-425983             0      0.00%    100.00% # Ticks for misses to the cache
system.cache.missLatency::425984-458751             0      0.00%    100.00% # Ticks for misses to the cache
system.cache.missLatency::458752-491519             0      0.00%    100.00% # Ticks for misses to the cache
system.cache.missLatency::491520-524287             0      0.00%    100.00% # Ticks for misses to the cache
system.cache.missLatency::total                  1627                       # Ticks for misses to the cache
system.cache.hitRatio                        0.902592                       # The ratio of hits to the total accesses to the cache
system.cpu.dtb.fetch_hits                           0                       # ITB hits
system.cpu.dtb.fetch_misses                         0                       # ITB misses
system.cpu.dtb.fetch_acv                            0                       # ITB acv
system.cpu.dtb.fetch_accesses                       0                       # ITB accesses
system.cpu.dtb.read_hits                         2622                       # DTB read hits
system.cpu.dtb.read_misses                         10                       # DTB read misses
system.cpu.dtb.read_acv                             0                       # DTB read access violations
system.cpu.dtb.read_accesses                     2632                       # DTB read accesses
system.cpu.dtb.write_hits                        2114                       # DTB write hits
system.cpu.dtb.write_misses                         2                       # DTB write misses
system.cpu.dtb.write_acv                            0                       # DTB write access violations
system.cpu.dtb.write_accesses                    2116                       # DTB write accesses
system.cpu.dtb.data_hits                         4736                       # DTB hits
system.cpu.dtb.data_misses                         12                       # DTB misses
system.cpu.dtb.data_acv                             0                       # DTB access violations
system.cpu.dtb.data_accesses                     4748                       # DTB accesses
system.cpu.itb.fetch_hits                       11968                       # ITB hits
system.cpu.itb.fetch_misses                        19                       # ITB misses
system.cpu.itb.fetch_acv                            0                       # ITB acv
system.cpu.itb.fetch_accesses                   11987                       # ITB accesses
system.cpu.itb.read_hits                            0                       # DTB read hits
system.cpu.itb.read_misses                          0                       # DTB read misses
system.cpu.itb.read_acv                             0                       # DTB read access violations
system.cpu.itb.read_accesses                        0                       # DTB read accesses
system.cpu.itb.write_hits                           0                       # DTB write hits
system.cpu.itb.write_misses                         0                       # DTB write misses
system.cpu.itb.write_acv                            0                       # DTB write access violations
system.cpu.itb.write_accesses                       0                       # DTB write accesses
system.cpu.itb.data_hits                            0                       # DTB hits
system.cpu.itb.data_misses                          0                       # DTB misses
system.cpu.itb.data_acv                             0                       # DTB access violations
system.cpu.itb.data_accesses                        0                       # DTB accesses
system.cpu.workload.numSyscalls                    10                       # Number of system calls
system.cpu.pwrStateResidencyTicks::ON       100674000                       # Cumulative time (in ticks) in various power states
system.cpu.numCycles                           100674                       # number of cpu cycles simulated
system.cpu.numWorkItemsStarted                      0                       # number of work items this cpu started
system.cpu.numWorkItemsCompleted                    0                       # number of work items this cpu completed
system.cpu.committedInsts                       11955                       # Number of instructions committed
system.cpu.committedOps                         11955                       # Number of ops (including micro ops) committed
system.cpu.num_int_alu_accesses                 11666                       # Number of integer alu accesses
system.cpu.num_fp_alu_accesses                     16                       # Number of float alu accesses
system.cpu.num_vec_alu_accesses                     0                       # Number of vector alu accesses
system.cpu.num_func_calls                         669                       # number of times a function call or return occured
system.cpu.num_conditional_control_insts          954                       # number of instructions that are conditional controls
system.cpu.num_int_insts                        11666                       # number of integer instructions
system.cpu.num_fp_insts                            16                       # number of float instructions
system.cpu.num_vec_insts                            0                       # number of vector instructions
system.cpu.num_int_register_reads               16062                       # number of times the integer registers were read
system.cpu.num_int_register_writes               8240                       # number of times the integer registers were written
system.cpu.num_fp_register_reads                   14                       # number of times the floating registers were read
system.cpu.num_fp_register_writes                   2                       # number of times the floating registers were written
system.cpu.num_vec_register_reads                   0                       # number of times the vector registers were read
system.cpu.num_vec_register_writes                  0                       # number of times the vector registers were written
system.cpu.num_mem_refs                          4748                       # number of memory refs
system.cpu.num_load_insts                        2632                       # Number of load instructions
system.cpu.num_store_insts                       2116                       # Number of store instructions
system.cpu.num_idle_cycles                          0                       # Number of idle cycles
system.cpu.num_busy_cycles                     100674                       # Number of busy cycles
system.cpu.not_idle_fraction                        1                       # Percentage of non-idle cycles
system.cpu.idle_fraction                            0                       # Percentage of idle cycles
system.cpu.Branches                              1907                       # Number of branches fetched
system.cpu.op_class::No_OpClass                    22      0.18%      0.18% # Class of executed instruction
system.cpu.op_class::IntAlu                      7188     60.07%     60.25% # Class of executed instruction
system.cpu.op_class::IntMult                        7      0.06%     60.31% # Class of executed instruction
system.cpu.op_class::IntDiv                         0      0.00%     60.31% # Class of executed instruction
system.cpu.op_class::FloatAdd                       2      0.02%     60.32% # Class of executed instruction
system.cpu.op_class::FloatCmp                       0      0.00%     60.32% # Class of executed instruction
system.cpu.op_class::FloatCvt                       0      0.00%     60.32% # Class of executed instruction
system.cpu.op_class::FloatMult                      0      0.00%     60.32% # Class of executed instruction
system.cpu.op_class::FloatMultAcc                   0      0.00%     60.32% # Class of executed instruction
system.cpu.op_class::FloatDiv                       0      0.00%     60.32% # Class of executed instruction
system.cpu.op_class::FloatMisc                      0      0.00%     60.32% # Class of executed instruction
system.cpu.op_class::FloatSqrt                      0      0.00%     60.32% # Class of executed instruction
system.cpu.op_class::SimdAdd                        0      0.00%     60.32% # Class of executed instruction
system.cpu.op_class::SimdAddAcc                     0      0.00%     60.32% # Class of executed instruction
system.cpu.op_class::SimdAlu                        0      0.00%     60.32% # Class of executed instruction
system.cpu.op_class::SimdCmp                        0      0.00%     60.32% # Class of executed instruction
system.cpu.op_class::SimdCvt                        0      0.00%     60.32% # Class of executed instruction
system.cpu.op_class::SimdMisc                       0      0.00%     60.32% # Class of executed instruction
system.cpu.op_class::SimdMult                       0      0.00%     60.32% # Class of executed instruction
system.cpu.op_class::SimdMultAcc                    0      0.00%     60.32% # Class of executed instruction
system.cpu.op_class::SimdShift                      0      0.00%     60.32% # Class of executed instruction
system.cpu.op_class::SimdShiftAcc                   0      0.00%     60.32% # Class of executed instruction
system.cpu.op_class::SimdSqrt                       0      0.00%     60.32% # Class of executed instruction
system.cpu.op_class::SimdFloatAdd                   0      0.00%     60.32% # Class of executed instruction
system.cpu.op_class::SimdFloatAlu                   0      0.00%     60.32% # Class of executed instruction
system.cpu.op_class::SimdFloatCmp                   0      0.00%     60.32% # Class of executed instruction
system.cpu.op_class::SimdFloatCvt                   0      0.00%     60.32% # Class of executed instruction
system.cpu.op_class::SimdFloatDiv                   0      0.00%     60.32% # Class of executed instruction
system.cpu.op_class::SimdFloatMisc                  0      0.00%     60.32% # Class of executed instruction
system.cpu.op_class::SimdFloatMult                  0      0.00%     60.32% # Class of executed instruction
system.cpu.op_class::SimdFloatMultAcc               0      0.00%     60.32% # Class of executed instruction
system.cpu.op_class::SimdFloatSqrt                  0      0.00%     60.32% # Class of executed instruction
system.cpu.op_class::MemRead                     2631     21.99%     82.31% # Class of executed instruction
system.cpu.op_class::MemWrite                    2103     17.57%     99.88% # Class of executed instruction
system.cpu.op_class::FloatMemRead                   1      0.01%     99.89% # Class of executed instruction
system.cpu.op_class::FloatMemWrite                 13      0.11%    100.00% # Class of executed instruction
system.cpu.op_class::IprAccess                      0      0.00%    100.00% # Class of executed instruction
system.cpu.op_class::InstPrefetch                   0      0.00%    100.00% # Class of executed instruction
system.cpu.op_class::total                      11967                       # Class of executed instruction
system.membus.snoop_filter.tot_requests             0                       # Total number of requests made to the snoop filter.
system.membus.snoop_filter.hit_single_requests            0                       # Number of requests hitting in the snoop filter with a single holder of the requested data.
system.membus.snoop_filter.hit_multi_requests            0                       # Number of requests hitting in the snoop filter with multiple (>1) holders of the requested data.
system.membus.snoop_filter.tot_snoops               0                       # Total number of snoops made to the snoop filter.
system.membus.snoop_filter.hit_single_snoops            0                       # Number of snoops hitting in the snoop filter with a single holder of the requested data.
system.membus.snoop_filter.hit_multi_snoops            0                       # Number of snoops hitting in the snoop filter with multiple (>1) holders of the requested data.
system.membus.pwrStateResidencyTicks::UNDEFINED    100674000                       # Cumulative time (in ticks) in various power states
system.membus.trans_dist::ReadReq                1627                       # Transaction distribution
system.membus.trans_dist::ReadResp               1627                       # Transaction distribution
system.membus.trans_dist::WritebackDirty         1611                       # Transaction distribution
system.membus.pkt_count_system.cache.mem_side::system.mem_ctrl.port         4865                       # Packet count per connected master and slave (bytes)
system.membus.pkt_count::total                   4865                       # Packet count per connected master and slave (bytes)
system.membus.pkt_size_system.cache.mem_side::system.mem_ctrl.port       207232                       # Cumulative packet size per connected master and slave (bytes)
system.membus.pkt_size::total                  207232                       # Cumulative packet size per connected master and slave (bytes)
system.membus.snoops                                0                       # Total snoops (count)
system.membus.snoopTraffic                          0                       # Total snoop traffic (bytes)
system.membus.snoop_fanout::samples              1627                       # Request fanout histogram
system.membus.snoop_fanout::mean                    0                       # Request fanout histogram
system.membus.snoop_fanout::stdev                   0                       # Request fanout histogram
system.membus.snoop_fanout::underflows              0      0.00%      0.00% # Request fanout histogram
system.membus.snoop_fanout::0                    1627    100.00%    100.00% # Request fanout histogram
system.membus.snoop_fanout::overflows               0      0.00%    100.00% # Request fanout histogram
system.membus.snoop_fanout::min_value               0                       # Request fanout histogram
system.membus.snoop_fanout::max_value               0                       # Request fanout histogram
system.membus.snoop_fanout::total                1627                       # Request fanout histogram
system.membus.reqLayer0.occupancy             9682000                       # Layer occupancy (ticks)
system.membus.reqLayer0.utilization               9.6                       # Layer utilization (%)
system.membus.respLayer0.occupancy            8477500                       # Layer occupancy (ticks)
system.membus.respLayer0.utilization              8.4                       # Layer utilization (%)

---------- End Simulation Statistics   ----------
