
---------- Begin Simulation Statistics ----------
sim_seconds                                  0.000318                       # Number of seconds simulated
sim_ticks                                   318476000                       # Number of ticks simulated
final_tick                                  318476000                       # Number of ticks from beginning of simulation (restored from checkpoints and never reset)
sim_freq                                 1000000000000                       # Frequency of simulated ticks
host_inst_rate                                 228028                       # Simulator instruction rate (inst/s)
host_op_rate                                   227976                       # Simulator op (including micro ops) rate (op/s)
host_tick_rate                             6055712955                       # Simulator tick rate (ticks/s)
host_mem_usage                                6706324                       # Number of bytes of host memory used
host_seconds                                     0.05                       # Real time elapsed on the host
sim_insts                                       11987                       # Number of instructions simulated
sim_ops                                         11987                       # Number of ops (including micro ops) simulated
system.clk_domain.voltage_domain.voltage            1                       # Voltage in Volts
system.clk_domain.clock                          1000                       # Clock period in ticks
system.mem_ctrl.pwrStateResidencyTicks::UNDEFINED    318476000                       # Cumulative time (in ticks) in various power states
system.mem_ctrl.bytes_read::cpu.inst           368384                       # Number of bytes read from this memory
system.mem_ctrl.bytes_read::cpu.data           297664                       # Number of bytes read from this memory
system.mem_ctrl.bytes_read::total              666048                       # Number of bytes read from this memory
system.mem_ctrl.bytes_inst_read::cpu.inst       368384                       # Number of instructions bytes read from this memory
system.mem_ctrl.bytes_inst_read::total         368384                       # Number of instructions bytes read from this memory
system.mem_ctrl.bytes_written::writebacks       665024                       # Number of bytes written to this memory
system.mem_ctrl.bytes_written::total           665024                       # Number of bytes written to this memory
system.mem_ctrl.num_reads::cpu.inst              5756                       # Number of read requests responded to by this memory
system.mem_ctrl.num_reads::cpu.data              4651                       # Number of read requests responded to by this memory
system.mem_ctrl.num_reads::total                10407                       # Number of read requests responded to by this memory
system.mem_ctrl.num_writes::writebacks          10391                       # Number of write requests responded to by this memory
system.mem_ctrl.num_writes::total               10391                       # Number of write requests responded to by this memory
system.mem_ctrl.bw_read::cpu.inst          1156708826                       # Total read bandwidth from this memory (bytes/s)
system.mem_ctrl.bw_read::cpu.data           934651277                       # Total read bandwidth from this memory (bytes/s)
system.mem_ctrl.bw_read::total             2091360102                       # Total read bandwidth from this memory (bytes/s)
system.mem_ctrl.bw_inst_read::cpu.inst     1156708826                       # Instruction read bandwidth from this memory (bytes/s)
system.mem_ctrl.bw_inst_read::total        1156708826                       # Instruction read bandwidth from this memory (bytes/s)
system.mem_ctrl.bw_write::writebacks       2088144790                       # Write bandwidth from this memory (bytes/s)
system.mem_ctrl.bw_write::total            2088144790                       # Write bandwidth from this memory (bytes/s)
system.mem_ctrl.bw_total::writebacks       2088144790                       # Total bandwidth to/from this memory (bytes/s)
system.mem_ctrl.bw_total::cpu.inst         1156708826                       # Total bandwidth to/from this memory (bytes/s)
system.mem_ctrl.bw_total::cpu.data          934651277                       # Total bandwidth to/from this memory (bytes/s)
system.mem_ctrl.bw_total::total            4179504892                       # Total bandwidth to/from this memory (bytes/s)
system.mem_ctrl.readReqs                        10407                       # Number of read requests accepted
system.mem_ctrl.writeReqs                       10391                       # Number of write requests accepted
system.mem_ctrl.readBursts                      10407                       # Number of DRAM read bursts, including those serviced by the write queue
system.mem_ctrl.writeBursts                     10391                       # Number of DRAM write bursts, including those merged in the write queue
system.mem_ctrl.bytesReadDRAM                   78144                       # Total number of bytes read from DRAM
system.mem_ctrl.bytesReadWrQ                   587904                       # Total number of bytes read from write queue
system.mem_ctrl.bytesWritten                    78976                       # Total number of bytes written to DRAM
system.mem_ctrl.bytesReadSys                   666048                       # Total read bytes from the system interface side
system.mem_ctrl.bytesWrittenSys                665024                       # Total written bytes from the system interface side
system.mem_ctrl.servicedByWrQ                    9186                       # Number of DRAM read bursts serviced by the write queue
system.mem_ctrl.mergedWrBursts                   9141                       # Number of DRAM write bursts merged with an existing one
system.mem_ctrl.neitherReadNorWriteReqs             0                       # Number of requests that are neither read nor write
system.mem_ctrl.perBankRdBursts::0                 81                       # Per bank write bursts
system.mem_ctrl.perBankRdBursts::1                 24                       # Per bank write bursts
system.mem_ctrl.perBankRdBursts::2                221                       # Per bank write bursts
system.mem_ctrl.perBankRdBursts::3                175                       # Per bank write bursts
system.mem_ctrl.perBankRdBursts::4                107                       # Per bank write bursts
system.mem_ctrl.perBankRdBursts::5                 38                       # Per bank write bursts
system.mem_ctrl.perBankRdBursts::6                 84                       # Per bank write bursts
system.mem_ctrl.perBankRdBursts::7                 12                       # Per bank write bursts
system.mem_ctrl.perBankRdBursts::8                  3                       # Per bank write bursts
system.mem_ctrl.perBankRdBursts::9                233                       # Per bank write bursts
system.mem_ctrl.perBankRdBursts::10                12                       # Per bank write bursts
system.mem_ctrl.perBankRdBursts::11                28                       # Per bank write bursts
system.mem_ctrl.perBankRdBursts::12                 5                       # Per bank write bursts
system.mem_ctrl.perBankRdBursts::13                44                       # Per bank write bursts
system.mem_ctrl.perBankRdBursts::14                94                       # Per bank write bursts
system.mem_ctrl.perBankRdBursts::15                60                       # Per bank write bursts
system.mem_ctrl.perBankWrBursts::0                 81                       # Per bank write bursts
system.mem_ctrl.perBankWrBursts::1                 27                       # Per bank write bursts
system.mem_ctrl.perBankWrBursts::2                219                       # Per bank write bursts
system.mem_ctrl.perBankWrBursts::3                175                       # Per bank write bursts
system.mem_ctrl.perBankWrBursts::4                109                       # Per bank write bursts
system.mem_ctrl.perBankWrBursts::5                 39                       # Per bank write bursts
system.mem_ctrl.perBankWrBursts::6                 85                       # Per bank write bursts
system.mem_ctrl.perBankWrBursts::7                 12                       # Per bank write bursts
system.mem_ctrl.perBankWrBursts::8                  4                       # Per bank write bursts
system.mem_ctrl.perBankWrBursts::9                239                       # Per bank write bursts
system.mem_ctrl.perBankWrBursts::10                12                       # Per bank write bursts
system.mem_ctrl.perBankWrBursts::11                29                       # Per bank write bursts
system.mem_ctrl.perBankWrBursts::12                 6                       # Per bank write bursts
system.mem_ctrl.perBankWrBursts::13                44                       # Per bank write bursts
system.mem_ctrl.perBankWrBursts::14                92                       # Per bank write bursts
system.mem_ctrl.perBankWrBursts::15                61                       # Per bank write bursts
system.mem_ctrl.numRdRetry                          0                       # Number of times read queue was full causing retry
system.mem_ctrl.numWrRetry                          0                       # Number of times write queue was full causing retry
system.mem_ctrl.totGap                      318472000                       # Total gap between requests
system.mem_ctrl.readPktSize::0                      0                       # Read request sizes (log2)
system.mem_ctrl.readPktSize::1                      0                       # Read request sizes (log2)
system.mem_ctrl.readPktSize::2                      0                       # Read request sizes (log2)
system.mem_ctrl.readPktSize::3                      0                       # Read request sizes (log2)
system.mem_ctrl.readPktSize::4                      0                       # Read request sizes (log2)
system.mem_ctrl.readPktSize::5                      0                       # Read request sizes (log2)
system.mem_ctrl.readPktSize::6                  10407                       # Read request sizes (log2)
system.mem_ctrl.writePktSize::0                     0                       # Write request sizes (log2)
system.mem_ctrl.writePktSize::1                     0                       # Write request sizes (log2)
system.mem_ctrl.writePktSize::2                     0                       # Write request sizes (log2)
system.mem_ctrl.writePktSize::3                     0                       # Write request sizes (log2)
system.mem_ctrl.writePktSize::4                     0                       # Write request sizes (log2)
system.mem_ctrl.writePktSize::5                     0                       # Write request sizes (log2)
system.mem_ctrl.writePktSize::6                 10391                       # Write request sizes (log2)
system.mem_ctrl.rdQLenPdf::0                     1221                       # What read queue length does an incoming req see
system.mem_ctrl.rdQLenPdf::1                        0                       # What read queue length does an incoming req see
system.mem_ctrl.rdQLenPdf::2                        0                       # What read queue length does an incoming req see
system.mem_ctrl.rdQLenPdf::3                        0                       # What read queue length does an incoming req see
system.mem_ctrl.rdQLenPdf::4                        0                       # What read queue length does an incoming req see
system.mem_ctrl.rdQLenPdf::5                        0                       # What read queue length does an incoming req see
system.mem_ctrl.rdQLenPdf::6                        0                       # What read queue length does an incoming req see
system.mem_ctrl.rdQLenPdf::7                        0                       # What read queue length does an incoming req see
system.mem_ctrl.rdQLenPdf::8                        0                       # What read queue length does an incoming req see
system.mem_ctrl.rdQLenPdf::9                        0                       # What read queue length does an incoming req see
system.mem_ctrl.rdQLenPdf::10                       0                       # What read queue length does an incoming req see
system.mem_ctrl.rdQLenPdf::11                       0                       # What read queue length does an incoming req see
system.mem_ctrl.rdQLenPdf::12                       0                       # What read queue length does an incoming req see
system.mem_ctrl.rdQLenPdf::13                       0                       # What read queue length does an incoming req see
system.mem_ctrl.rdQLenPdf::14                       0                       # What read queue length does an incoming req see
system.mem_ctrl.rdQLenPdf::15                       0                       # What read queue length does an incoming req see
system.mem_ctrl.rdQLenPdf::16                       0                       # What read queue length does an incoming req see
system.mem_ctrl.rdQLenPdf::17                       0                       # What read queue length does an incoming req see
system.mem_ctrl.rdQLenPdf::18                       0                       # What read queue length does an incoming req see
system.mem_ctrl.rdQLenPdf::19                       0                       # What read queue length does an incoming req see
system.mem_ctrl.rdQLenPdf::20                       0                       # What read queue length does an incoming req see
system.mem_ctrl.rdQLenPdf::21                       0                       # What read queue length does an incoming req see
system.mem_ctrl.rdQLenPdf::22                       0                       # What read queue length does an incoming req see
system.mem_ctrl.rdQLenPdf::23                       0                       # What read queue length does an incoming req see
system.mem_ctrl.rdQLenPdf::24                       0                       # What read queue length does an incoming req see
system.mem_ctrl.rdQLenPdf::25                       0                       # What read queue length does an incoming req see
system.mem_ctrl.rdQLenPdf::26                       0                       # What read queue length does an incoming req see
system.mem_ctrl.rdQLenPdf::27                       0                       # What read queue length does an incoming req see
system.mem_ctrl.rdQLenPdf::28                       0                       # What read queue length does an incoming req see
system.mem_ctrl.rdQLenPdf::29                       0                       # What read queue length does an incoming req see
system.mem_ctrl.rdQLenPdf::30                       0                       # What read queue length does an incoming req see
system.mem_ctrl.rdQLenPdf::31                       0                       # What read queue length does an incoming req see
system.mem_ctrl.wrQLenPdf::0                        1                       # What write queue length does an incoming req see
system.mem_ctrl.wrQLenPdf::1                        1                       # What write queue length does an incoming req see
system.mem_ctrl.wrQLenPdf::2                        1                       # What write queue length does an incoming req see
system.mem_ctrl.wrQLenPdf::3                        1                       # What write queue length does an incoming req see
system.mem_ctrl.wrQLenPdf::4                        1                       # What write queue length does an incoming req see
system.mem_ctrl.wrQLenPdf::5                        1                       # What write queue length does an incoming req see
system.mem_ctrl.wrQLenPdf::6                        1                       # What write queue length does an incoming req see
system.mem_ctrl.wrQLenPdf::7                        1                       # What write queue length does an incoming req see
system.mem_ctrl.wrQLenPdf::8                        1                       # What write queue length does an incoming req see
system.mem_ctrl.wrQLenPdf::9                        1                       # What write queue length does an incoming req see
system.mem_ctrl.wrQLenPdf::10                       1                       # What write queue length does an incoming req see
system.mem_ctrl.wrQLenPdf::11                       1                       # What write queue length does an incoming req see
system.mem_ctrl.wrQLenPdf::12                       1                       # What write queue length does an incoming req see
system.mem_ctrl.wrQLenPdf::13                       1                       # What write queue length does an incoming req see
system.mem_ctrl.wrQLenPdf::14                       1                       # What write queue length does an incoming req see
system.mem_ctrl.wrQLenPdf::15                      29                       # What write queue length does an incoming req see
system.mem_ctrl.wrQLenPdf::16                      30                       # What write queue length does an incoming req see
system.mem_ctrl.wrQLenPdf::17                      62                       # What write queue length does an incoming req see
system.mem_ctrl.wrQLenPdf::18                      78                       # What write queue length does an incoming req see
system.mem_ctrl.wrQLenPdf::19                      75                       # What write queue length does an incoming req see
system.mem_ctrl.wrQLenPdf::20                      75                       # What write queue length does an incoming req see
system.mem_ctrl.wrQLenPdf::21                      72                       # What write queue length does an incoming req see
system.mem_ctrl.wrQLenPdf::22                      73                       # What write queue length does an incoming req see
system.mem_ctrl.wrQLenPdf::23                      90                       # What write queue length does an incoming req see
system.mem_ctrl.wrQLenPdf::24                      75                       # What write queue length does an incoming req see
system.mem_ctrl.wrQLenPdf::25                      72                       # What write queue length does an incoming req see
system.mem_ctrl.wrQLenPdf::26                      72                       # What write queue length does an incoming req see
system.mem_ctrl.wrQLenPdf::27                      72                       # What write queue length does an incoming req see
system.mem_ctrl.wrQLenPdf::28                      72                       # What write queue length does an incoming req see
system.mem_ctrl.wrQLenPdf::29                      72                       # What write queue length does an incoming req see
system.mem_ctrl.wrQLenPdf::30                      72                       # What write queue length does an incoming req see
system.mem_ctrl.wrQLenPdf::31                      72                       # What write queue length does an incoming req see
system.mem_ctrl.wrQLenPdf::32                      72                       # What write queue length does an incoming req see
system.mem_ctrl.wrQLenPdf::33                       0                       # What write queue length does an incoming req see
system.mem_ctrl.wrQLenPdf::34                       0                       # What write queue length does an incoming req see
system.mem_ctrl.wrQLenPdf::35                       0                       # What write queue length does an incoming req see
system.mem_ctrl.wrQLenPdf::36                       0                       # What write queue length does an incoming req see
system.mem_ctrl.wrQLenPdf::37                       0                       # What write queue length does an incoming req see
system.mem_ctrl.wrQLenPdf::38                       0                       # What write queue length does an incoming req see
system.mem_ctrl.wrQLenPdf::39                       0                       # What write queue length does an incoming req see
system.mem_ctrl.wrQLenPdf::40                       0                       # What write queue length does an incoming req see
system.mem_ctrl.wrQLenPdf::41                       0                       # What write queue length does an incoming req see
system.mem_ctrl.wrQLenPdf::42                       0                       # What write queue length does an incoming req see
system.mem_ctrl.wrQLenPdf::43                       0                       # What write queue length does an incoming req see
system.mem_ctrl.wrQLenPdf::44                       0                       # What write queue length does an incoming req see
system.mem_ctrl.wrQLenPdf::45                       0                       # What write queue length does an incoming req see
system.mem_ctrl.wrQLenPdf::46                       0                       # What write queue length does an incoming req see
system.mem_ctrl.wrQLenPdf::47                       0                       # What write queue length does an incoming req see
system.mem_ctrl.wrQLenPdf::48                       0                       # What write queue length does an incoming req see
system.mem_ctrl.wrQLenPdf::49                       0                       # What write queue length does an incoming req see
system.mem_ctrl.wrQLenPdf::50                       0                       # What write queue length does an incoming req see
system.mem_ctrl.wrQLenPdf::51                       0                       # What write queue length does an incoming req see
system.mem_ctrl.wrQLenPdf::52                       0                       # What write queue length does an incoming req see
system.mem_ctrl.wrQLenPdf::53                       0                       # What write queue length does an incoming req see
system.mem_ctrl.wrQLenPdf::54                       0                       # What write queue length does an incoming req see
system.mem_ctrl.wrQLenPdf::55                       0                       # What write queue length does an incoming req see
system.mem_ctrl.wrQLenPdf::56                       0                       # What write queue length does an incoming req see
system.mem_ctrl.wrQLenPdf::57                       0                       # What write queue length does an incoming req see
system.mem_ctrl.wrQLenPdf::58                       0                       # What write queue length does an incoming req see
system.mem_ctrl.wrQLenPdf::59                       0                       # What write queue length does an incoming req see
system.mem_ctrl.wrQLenPdf::60                       0                       # What write queue length does an incoming req see
system.mem_ctrl.wrQLenPdf::61                       0                       # What write queue length does an incoming req see
system.mem_ctrl.wrQLenPdf::62                       0                       # What write queue length does an incoming req see
system.mem_ctrl.wrQLenPdf::63                       0                       # What write queue length does an incoming req see
system.mem_ctrl.bytesPerActivate::samples          366                       # Bytes accessed per row activation
system.mem_ctrl.bytesPerActivate::mean     425.267760                       # Bytes accessed per row activation
system.mem_ctrl.bytesPerActivate::gmean    274.900492                       # Bytes accessed per row activation
system.mem_ctrl.bytesPerActivate::stdev    352.837064                       # Bytes accessed per row activation
system.mem_ctrl.bytesPerActivate::0-127            76     20.77%     20.77% # Bytes accessed per row activation
system.mem_ctrl.bytesPerActivate::128-255           77     21.04%     41.80% # Bytes accessed per row activation
system.mem_ctrl.bytesPerActivate::256-383           50     13.66%     55.46% # Bytes accessed per row activation
system.mem_ctrl.bytesPerActivate::384-511           27      7.38%     62.84% # Bytes accessed per row activation
system.mem_ctrl.bytesPerActivate::512-639           28      7.65%     70.49% # Bytes accessed per row activation
system.mem_ctrl.bytesPerActivate::640-767           21      5.74%     76.23% # Bytes accessed per row activation
system.mem_ctrl.bytesPerActivate::768-895           14      3.83%     80.05% # Bytes accessed per row activation
system.mem_ctrl.bytesPerActivate::896-1023           14      3.83%     83.88% # Bytes accessed per row activation
system.mem_ctrl.bytesPerActivate::1024-1151           59     16.12%    100.00% # Bytes accessed per row activation
system.mem_ctrl.bytesPerActivate::total           366                       # Bytes accessed per row activation
system.mem_ctrl.rdPerTurnAround::samples           72                       # Reads before turning the bus around for writes
system.mem_ctrl.rdPerTurnAround::mean       16.958333                       # Reads before turning the bus around for writes
system.mem_ctrl.rdPerTurnAround::gmean      16.710326                       # Reads before turning the bus around for writes
system.mem_ctrl.rdPerTurnAround::stdev       4.029600                       # Reads before turning the bus around for writes
system.mem_ctrl.rdPerTurnAround::14-15             14     19.44%     19.44% # Reads before turning the bus around for writes
system.mem_ctrl.rdPerTurnAround::16-17             36     50.00%     69.44% # Reads before turning the bus around for writes
system.mem_ctrl.rdPerTurnAround::18-19             21     29.17%     98.61% # Reads before turning the bus around for writes
system.mem_ctrl.rdPerTurnAround::48-49              1      1.39%    100.00% # Reads before turning the bus around for writes
system.mem_ctrl.rdPerTurnAround::total             72                       # Reads before turning the bus around for writes
system.mem_ctrl.wrPerTurnAround::samples           72                       # Writes before turning the bus around for reads
system.mem_ctrl.wrPerTurnAround::mean       17.138889                       # Writes before turning the bus around for reads
system.mem_ctrl.wrPerTurnAround::gmean      17.082996                       # Writes before turning the bus around for reads
system.mem_ctrl.wrPerTurnAround::stdev       1.427157                       # Writes before turning the bus around for reads
system.mem_ctrl.wrPerTurnAround::16                39     54.17%     54.17% # Writes before turning the bus around for reads
system.mem_ctrl.wrPerTurnAround::17                 4      5.56%     59.72% # Writes before turning the bus around for reads
system.mem_ctrl.wrPerTurnAround::18                15     20.83%     80.56% # Writes before turning the bus around for reads
system.mem_ctrl.wrPerTurnAround::19                10     13.89%     94.44% # Writes before turning the bus around for reads
system.mem_ctrl.wrPerTurnAround::20                 3      4.17%     98.61% # Writes before turning the bus around for reads
system.mem_ctrl.wrPerTurnAround::22                 1      1.39%    100.00% # Writes before turning the bus around for reads
system.mem_ctrl.wrPerTurnAround::total             72                       # Writes before turning the bus around for reads
system.mem_ctrl.totQLat                      22077500                       # Total ticks spent queuing
system.mem_ctrl.totMemAccLat                 44971250                       # Total ticks spent from burst creation until serviced by the DRAM
system.mem_ctrl.totBusLat                     6105000                       # Total ticks spent in databus transfers
system.mem_ctrl.avgQLat                      18081.49                       # Average queueing delay per DRAM burst
system.mem_ctrl.avgBusLat                     5000.00                       # Average bus latency per DRAM burst
system.mem_ctrl.avgMemAccLat                 36831.49                       # Average memory access latency per DRAM burst
system.mem_ctrl.avgRdBW                        245.37                       # Average DRAM read bandwidth in MiByte/s
system.mem_ctrl.avgWrBW                        247.98                       # Average achieved write bandwidth in MiByte/s
system.mem_ctrl.avgRdBWSys                    2091.36                       # Average system read bandwidth in MiByte/s
system.mem_ctrl.avgWrBWSys                    2088.14                       # Average system write bandwidth in MiByte/s
system.mem_ctrl.peakBW                       12800.00                       # Theoretical peak bandwidth in MiByte/s
system.mem_ctrl.busUtil                          3.85                       # Data bus utilization in percentage
system.mem_ctrl.busUtilRead                      1.92                       # Data bus utilization in percentage for reads
system.mem_ctrl.busUtilWrite                     1.94                       # Data bus utilization in percentage for writes
system.mem_ctrl.avgRdQLen                        1.00                       # Average read queue length when enqueuing
system.mem_ctrl.avgWrQLen                       25.94                       # Average write queue length when enqueuing
system.mem_ctrl.readRowHits                       930                       # Number of row buffer hits during reads
system.mem_ctrl.writeRowHits                     1153                       # Number of row buffer hits during writes
system.mem_ctrl.readRowHitRate                  76.17                       # Row buffer hit rate for reads
system.mem_ctrl.writeRowHitRate                 92.24                       # Row buffer hit rate for writes
system.mem_ctrl.avgGap                       15312.63                       # Average gap between requests
system.mem_ctrl.pageHitRate                     84.30                       # Row buffer hit rate, read and write combined
system.mem_ctrl_0.actEnergy                   1877820                       # Energy for activate commands per rank (pJ)
system.mem_ctrl_0.preEnergy                    986700                       # Energy for precharge commands per rank (pJ)
system.mem_ctrl_0.readEnergy                  5297880                       # Energy for read commands per rank (pJ)
system.mem_ctrl_0.writeEnergy                 3899340                       # Energy for write commands per rank (pJ)
system.mem_ctrl_0.refreshEnergy          23356320.000000                       # Energy for refresh commands per rank (pJ)
system.mem_ctrl_0.actBackEnergy              26801400                       # Energy for active background per rank (pJ)
system.mem_ctrl_0.preBackEnergy               1027200                       # Energy for precharge background per rank (pJ)
system.mem_ctrl_0.actPowerDownEnergy         63145170                       # Energy for active power-down per rank (pJ)
system.mem_ctrl_0.prePowerDownEnergy         22227840                       # Energy for precharge power-down per rank (pJ)
system.mem_ctrl_0.selfRefreshEnergy          17873040                       # Energy for self refresh per rank (pJ)
system.mem_ctrl_0.totalEnergy               166492710                       # Total energy per rank (pJ)
system.mem_ctrl_0.averagePower             522.779046                       # Core power per rank (mW)
system.mem_ctrl_0.totalIdleTime             256888250                       # Total Idle time Per DRAM Rank
system.mem_ctrl_0.memoryStateTime::IDLE       1747000                       # Time in different power states
system.mem_ctrl_0.memoryStateTime::REF        9916000                       # Time in different power states
system.mem_ctrl_0.memoryStateTime::SREF      60664500                       # Time in different power states
system.mem_ctrl_0.memoryStateTime::PRE_PDN     57888000                       # Time in different power states
system.mem_ctrl_0.memoryStateTime::ACT       49791500                       # Time in different power states
system.mem_ctrl_0.memoryStateTime::ACT_PDN    138469000                       # Time in different power states
system.mem_ctrl_1.actEnergy                    778260                       # Energy for activate commands per rank (pJ)
system.mem_ctrl_1.preEnergy                    398475                       # Energy for precharge commands per rank (pJ)
system.mem_ctrl_1.readEnergy                  3420060                       # Energy for read commands per rank (pJ)
system.mem_ctrl_1.writeEnergy                 2526480                       # Energy for write commands per rank (pJ)
system.mem_ctrl_1.refreshEnergy          22741680.000000                       # Energy for refresh commands per rank (pJ)
system.mem_ctrl_1.actBackEnergy              17516670                       # Energy for active background per rank (pJ)
system.mem_ctrl_1.preBackEnergy                953280                       # Energy for precharge background per rank (pJ)
system.mem_ctrl_1.actPowerDownEnergy         86464440                       # Energy for active power-down per rank (pJ)
system.mem_ctrl_1.prePowerDownEnergy         15338400                       # Energy for precharge power-down per rank (pJ)
system.mem_ctrl_1.selfRefreshEnergy          13181820                       # Energy for self refresh per rank (pJ)
system.mem_ctrl_1.totalEnergy               163319565                       # Total energy per rank (pJ)
system.mem_ctrl_1.averagePower             512.815524                       # Core power per rank (mW)
system.mem_ctrl_1.totalIdleTime             277606500                       # Total Idle time Per DRAM Rank
system.mem_ctrl_1.memoryStateTime::IDLE       1410000                       # Time in different power states
system.mem_ctrl_1.memoryStateTime::REF        9638000                       # Time in different power states
system.mem_ctrl_1.memoryStateTime::SREF      48021250                       # Time in different power states
system.mem_ctrl_1.memoryStateTime::PRE_PDN     39947500                       # Time in different power states
system.mem_ctrl_1.memoryStateTime::ACT       29821500                       # Time in different power states
system.mem_ctrl_1.memoryStateTime::ACT_PDN    189637750                       # Time in different power states
system.pwrStateResidencyTicks::UNDEFINED    318476000                       # Cumulative time (in ticks) in various power states
system.cache.pwrStateResidencyTicks::UNDEFINED    318476000                       # Cumulative time (in ticks) in various power states
system.cache.hits                                6332                       # Number of hits
system.cache.misses                             10407                       # Number of misses
system.cache.missLatency::samples               10407                       # Ticks for misses to the cache
system.cache.missLatency::mean           28993.658115                       # Ticks for misses to the cache
system.cache.missLatency::gmean          26518.975723                       # Ticks for misses to the cache
system.cache.missLatency::stdev          21246.418521                       # Ticks for misses to the cache
system.cache.missLatency::0-65535               10092     96.97%     96.97% # Ticks for misses to the cache
system.cache.missLatency::65536-131071            266      2.56%     99.53% # Ticks for misses to the cache
system.cache.missLatency::131072-196607            25      0.24%     99.77% # Ticks for misses to the cache
system.cache.missLatency::196608-262143             8      0.08%     99.85% # Ticks for misses to the cache
system.cache.missLatency::262144-327679             7      0.07%     99.91% # Ticks for misses to the cache
system.cache.missLatency::327680-393215             5      0.05%     99.96% # Ticks for misses to the cache
system.cache.missLatency::393216-458751             0      0.00%     99.96% # Ticks for misses to the cache
system.cache.missLatency::458752-524287             1      0.01%     99.97% # Ticks for misses to the cache
system.cache.missLatency::524288-589823             0      0.00%     99.97% # Ticks for misses to the cache
system.cache.missLatency::589824-655359             3      0.03%    100.00% # Ticks for misses to the cache
system.cache.missLatency::655360-720895             0      0.00%    100.00% # Ticks for misses to the cache
system.cache.missLatency::720896-786431             0      0.00%    100.00% # Ticks for misses to the cache
system.cache.missLatency::786432-851967             0      0.00%    100.00% # Ticks for misses to the cache
system.cache.missLatency::851968-917503             0      0.00%    100.00% # Ticks for misses to the cache
system.cache.missLatency::917504-983039             0      0.00%    100.00% # Ticks for misses to the cache
system.cache.missLatency::983040-1.04858e+06            0      0.00%    100.00% # Ticks for misses to the cache
system.cache.missLatency::total                 10407                       # Ticks for misses to the cache
system.cache.hitRatio                        0.378278                       # The ratio of hits to the total accesses to the cache
system.cpu.dtb.fetch_hits                           0                       # ITB hits
system.cpu.dtb.fetch_misses                         0                       # ITB misses
system.cpu.dtb.fetch_acv                            0                       # ITB acv
system.cpu.dtb.fetch_accesses                       0                       # ITB accesses
system.cpu.dtb.read_hits                         2626                       # DTB read hits
system.cpu.dtb.read_misses                         10                       # DTB read misses
system.cpu.dtb.read_acv                             0                       # DTB read access violations
system.cpu.dtb.read_accesses                     2636                       # DTB read accesses
system.cpu.dtb.write_hits                        2114                       # DTB write hits
system.cpu.dtb.write_misses                         2                       # DTB write misses
system.cpu.dtb.write_acv                            0                       # DTB write access violations
system.cpu.dtb.write_accesses                    2116                       # DTB write accesses
system.cpu.dtb.data_hits                         4740                       # DTB hits
system.cpu.dtb.data_misses                         12                       # DTB misses
system.cpu.dtb.data_acv                             0                       # DTB access violations
system.cpu.dtb.data_accesses                     4752                       # DTB accesses
system.cpu.itb.fetch_hits                       12000                       # ITB hits
system.cpu.itb.fetch_misses                        19                       # ITB misses
system.cpu.itb.fetch_acv                            0                       # ITB acv
system.cpu.itb.fetch_accesses                   12019                       # ITB accesses
system.cpu.itb.read_hits                            0                       # DTB read hits
system.cpu.itb.read_misses                          0                       # DTB read misses
system.cpu.itb.read_acv                             0                       # DTB read access violations
system.cpu.itb.read_accesses                        0                       # DTB read accesses
system.cpu.itb.write_hits                           0                       # DTB write hits
system.cpu.itb.write_misses                         0                       # DTB write misses
system.cpu.itb.write_acv                            0                       # DTB write access violations
system.cpu.itb.write_accesses                       0                       # DTB write accesses
system.cpu.itb.data_hits                            0                       # DTB hits
system.cpu.itb.data_misses                          0                       # DTB misses
system.cpu.itb.data_acv                             0                       # DTB access violations
system.cpu.itb.data_accesses                        0                       # DTB accesses
system.cpu.workload.numSyscalls                    10                       # Number of system calls
system.cpu.pwrStateResidencyTicks::ON       318476000                       # Cumulative time (in ticks) in various power states
system.cpu.numCycles                           318476                       # number of cpu cycles simulated
system.cpu.numWorkItemsStarted                      0                       # number of work items this cpu started
system.cpu.numWorkItemsCompleted                    0                       # number of work items this cpu completed
system.cpu.committedInsts                       11987                       # Number of instructions committed
system.cpu.committedOps                         11987                       # Number of ops (including micro ops) committed
system.cpu.num_int_alu_accesses                 11698                       # Number of integer alu accesses
system.cpu.num_fp_alu_accesses                     16                       # Number of float alu accesses
system.cpu.num_vec_alu_accesses                     0                       # Number of vector alu accesses
system.cpu.num_func_calls                         669                       # number of times a function call or return occured
system.cpu.num_conditional_control_insts          958                       # number of instructions that are conditional controls
system.cpu.num_int_insts                        11698                       # number of integer instructions
system.cpu.num_fp_insts                            16                       # number of float instructions
system.cpu.num_vec_insts                            0                       # number of vector instructions
system.cpu.num_int_register_reads               16122                       # number of times the integer registers were read
system.cpu.num_int_register_writes               8268                       # number of times the integer registers were written
system.cpu.num_fp_register_reads                   14                       # number of times the floating registers were read
system.cpu.num_fp_register_writes                   2                       # number of times the floating registers were written
system.cpu.num_vec_register_reads                   0                       # number of times the vector registers were read
system.cpu.num_vec_register_writes                  0                       # number of times the vector registers were written
system.cpu.num_mem_refs                          4752                       # number of memory refs
system.cpu.num_load_insts                        2636                       # Number of load instructions
system.cpu.num_store_insts                       2116                       # Number of store instructions
system.cpu.num_idle_cycles                          0                       # Number of idle cycles
system.cpu.num_busy_cycles                     318476                       # Number of busy cycles
system.cpu.not_idle_fraction                        1                       # Percentage of non-idle cycles
system.cpu.idle_fraction                            0                       # Percentage of idle cycles
system.cpu.Branches                              1911                       # Number of branches fetched
system.cpu.op_class::No_OpClass                    22      0.18%      0.18% # Class of executed instruction
system.cpu.op_class::IntAlu                      7216     60.14%     60.32% # Class of executed instruction
system.cpu.op_class::IntMult                        7      0.06%     60.38% # Class of executed instruction
system.cpu.op_class::IntDiv                         0      0.00%     60.38% # Class of executed instruction
system.cpu.op_class::FloatAdd                       2      0.02%     60.40% # Class of executed instruction
system.cpu.op_class::FloatCmp                       0      0.00%     60.40% # Class of executed instruction
system.cpu.op_class::FloatCvt                       0      0.00%     60.40% # Class of executed instruction
system.cpu.op_class::FloatMult                      0      0.00%     60.40% # Class of executed instruction
system.cpu.op_class::FloatMultAcc                   0      0.00%     60.40% # Class of executed instruction
system.cpu.op_class::FloatDiv                       0      0.00%     60.40% # Class of executed instruction
system.cpu.op_class::FloatMisc                      0      0.00%     60.40% # Class of executed instruction
system.cpu.op_class::FloatSqrt                      0      0.00%     60.40% # Class of executed instruction
system.cpu.op_class::SimdAdd                        0      0.00%     60.40% # Class of executed instruction
system.cpu.op_class::SimdAddAcc                     0      0.00%     60.40% # Class of executed instruction
system.cpu.op_class::SimdAlu                        0      0.00%     60.40% # Class of executed instruction
system.cpu.op_class::SimdCmp                        0      0.00%     60.40% # Class of executed instruction
system.cpu.op_class::SimdCvt                        0      0.00%     60.40% # Class of executed instruction
system.cpu.op_class::SimdMisc                       0      0.00%     60.40% # Class of executed instruction
system.cpu.op_class::SimdMult                       0      0.00%     60.40% # Class of executed instruction
system.cpu.op_class::SimdMultAcc                    0      0.00%     60.40% # Class of executed instruction
system.cpu.op_class::SimdShift                      0      0.00%     60.40% # Class of executed instruction
system.cpu.op_class::SimdShiftAcc                   0      0.00%     60.40% # Class of executed instruction
system.cpu.op_class::SimdSqrt                       0      0.00%     60.40% # Class of executed instruction
system.cpu.op_class::SimdFloatAdd                   0      0.00%     60.40% # Class of executed instruction
system.cpu.op_class::SimdFloatAlu                   0      0.00%     60.40% # Class of executed instruction
system.cpu.op_class::SimdFloatCmp                   0      0.00%     60.40% # Class of executed instruction
system.cpu.op_class::SimdFloatCvt                   0      0.00%     60.40% # Class of executed instruction
system.cpu.op_class::SimdFloatDiv                   0      0.00%     60.40% # Class of executed instruction
system.cpu.op_class::SimdFloatMisc                  0      0.00%     60.40% # Class of executed instruction
system.cpu.op_class::SimdFloatMult                  0      0.00%     60.40% # Class of executed instruction
system.cpu.op_class::SimdFloatMultAcc               0      0.00%     60.40% # Class of executed instruction
system.cpu.op_class::SimdFloatSqrt                  0      0.00%     60.40% # Class of executed instruction
system.cpu.op_class::MemRead                     2635     21.96%     82.36% # Class of executed instruction
system.cpu.op_class::MemWrite                    2103     17.53%     99.88% # Class of executed instruction
system.cpu.op_class::FloatMemRead                   1      0.01%     99.89% # Class of executed instruction
system.cpu.op_class::FloatMemWrite                 13      0.11%    100.00% # Class of executed instruction
system.cpu.op_class::IprAccess                      0      0.00%    100.00% # Class of executed instruction
system.cpu.op_class::InstPrefetch                   0      0.00%    100.00% # Class of executed instruction
system.cpu.op_class::total                      11999                       # Class of executed instruction
system.membus.snoop_filter.tot_requests             0                       # Total number of requests made to the snoop filter.
system.membus.snoop_filter.hit_single_requests            0                       # Number of requests hitting in the snoop filter with a single holder of the requested data.
system.membus.snoop_filter.hit_multi_requests            0                       # Number of requests hitting in the snoop filter with multiple (>1) holders of the requested data.
system.membus.snoop_filter.tot_snoops               0                       # Total number of snoops made to the snoop filter.
system.membus.snoop_filter.hit_single_snoops            0                       # Number of snoops hitting in the snoop filter with a single holder of the requested data.
system.membus.snoop_filter.hit_multi_snoops            0                       # Number of snoops hitting in the snoop filter with multiple (>1) holders of the requested data.
system.membus.pwrStateResidencyTicks::UNDEFINED    318476000                       # Cumulative time (in ticks) in various power states
system.membus.trans_dist::ReadReq               10407                       # Transaction distribution
system.membus.trans_dist::ReadResp              10407                       # Transaction distribution
system.membus.trans_dist::WritebackDirty        10391                       # Transaction distribution
system.membus.pkt_count_system.cache.mem_side::system.mem_ctrl.port        31205                       # Packet count per connected master and slave (bytes)
system.membus.pkt_count::total                  31205                       # Packet count per connected master and slave (bytes)
system.membus.pkt_size_system.cache.mem_side::system.mem_ctrl.port      1331072                       # Cumulative packet size per connected master and slave (bytes)
system.membus.pkt_size::total                 1331072                       # Cumulative packet size per connected master and slave (bytes)
system.membus.snoops                                0                       # Total snoops (count)
system.membus.snoopTraffic                          0                       # Total snoop traffic (bytes)
system.membus.snoop_fanout::samples             10407                       # Request fanout histogram
system.membus.snoop_fanout::mean                    0                       # Request fanout histogram
system.membus.snoop_fanout::stdev                   0                       # Request fanout histogram
system.membus.snoop_fanout::underflows              0      0.00%      0.00% # Request fanout histogram
system.membus.snoop_fanout::0                   10407    100.00%    100.00% # Request fanout histogram
system.membus.snoop_fanout::overflows               0      0.00%    100.00% # Request fanout histogram
system.membus.snoop_fanout::min_value               0                       # Request fanout histogram
system.membus.snoop_fanout::max_value               0                       # Request fanout histogram
system.membus.snoop_fanout::total               10407                       # Request fanout histogram
system.membus.reqLayer0.occupancy            62362000                       # Layer occupancy (ticks)
system.membus.reqLayer0.utilization              19.6                       # Layer utilization (%)
system.membus.respLayer0.occupancy           52424750                       # Layer occupancy (ticks)
system.membus.respLayer0.utilization             16.5                       # Layer utilization (%)

---------- End Simulation Statistics   ----------
