
---------- Begin Simulation Statistics ----------
sim_seconds                                  0.000079                       # Number of seconds simulated
sim_ticks                                    78692000                       # Number of ticks simulated
final_tick                                   78692000                       # Number of ticks from beginning of simulation (restored from checkpoints and never reset)
sim_freq                                 1000000000000                       # Frequency of simulated ticks
host_inst_rate                                 426640                       # Simulator instruction rate (inst/s)
host_op_rate                                   426405                       # Simulator op (including micro ops) rate (op/s)
host_tick_rate                             4337559255                       # Simulator tick rate (ticks/s)
host_mem_usage                                6708372                       # Number of bytes of host memory used
host_seconds                                     0.02                       # Real time elapsed on the host
sim_insts                                        7732                       # Number of instructions simulated
sim_ops                                          7732                       # Number of ops (including micro ops) simulated
system.clk_domain.voltage_domain.voltage            1                       # Voltage in Volts
system.clk_domain.clock                          1000                       # Clock period in ticks
system.mem_ctrl.pwrStateResidencyTicks::UNDEFINED     78692000                       # Cumulative time (in ticks) in various power states
system.mem_ctrl.bytes_read::cpu.inst            43840                       # Number of bytes read from this memory
system.mem_ctrl.bytes_read::cpu.data            44224                       # Number of bytes read from this memory
system.mem_ctrl.bytes_read::total               88064                       # Number of bytes read from this memory
system.mem_ctrl.bytes_inst_read::cpu.inst        43840                       # Number of instructions bytes read from this memory
system.mem_ctrl.bytes_inst_read::total          43840                       # Number of instructions bytes read from this memory
system.mem_ctrl.bytes_written::writebacks        87040                       # Number of bytes written to this memory
system.mem_ctrl.bytes_written::total            87040                       # Number of bytes written to this memory
system.mem_ctrl.num_reads::cpu.inst               685                       # Number of read requests responded to by this memory
system.mem_ctrl.num_reads::cpu.data               691                       # Number of read requests responded to by this memory
system.mem_ctrl.num_reads::total                 1376                       # Number of read requests responded to by this memory
system.mem_ctrl.num_writes::writebacks           1360                       # Number of write requests responded to by this memory
system.mem_ctrl.num_writes::total                1360                       # Number of write requests responded to by this memory
system.mem_ctrl.bw_read::cpu.inst           557108728                       # Total read bandwidth from this memory (bytes/s)
system.mem_ctrl.bw_read::cpu.data           561988512                       # Total read bandwidth from this memory (bytes/s)
system.mem_ctrl.bw_read::total             1119097240                       # Total read bandwidth from this memory (bytes/s)
system.mem_ctrl.bw_inst_read::cpu.inst      557108728                       # Instruction read bandwidth from this memory (bytes/s)
system.mem_ctrl.bw_inst_read::total         557108728                       # Instruction read bandwidth from this memory (bytes/s)
system.mem_ctrl.bw_write::writebacks       1106084481                       # Write bandwidth from this memory (bytes/s)
system.mem_ctrl.bw_write::total            1106084481                       # Write bandwidth from this memory (bytes/s)
system.mem_ctrl.bw_total::writebacks       1106084481                       # Total bandwidth to/from this memory (bytes/s)
system.mem_ctrl.bw_total::cpu.inst          557108728                       # Total bandwidth to/from this memory (bytes/s)
system.mem_ctrl.bw_total::cpu.data          561988512                       # Total bandwidth to/from this memory (bytes/s)
system.mem_ctrl.bw_total::total            2225181721                       # Total bandwidth to/from this memory (bytes/s)
system.mem_ctrl.readReqs                         1376                       # Number of read requests accepted
system.mem_ctrl.writeReqs                        1360                       # Number of write requests accepted
system.mem_ctrl.readBursts                       1376                       # Number of DRAM read bursts, including those serviced by the write queue
system.mem_ctrl.writeBursts                      1360                       # Number of DRAM write bursts, including those merged in the write queue
system.mem_ctrl.bytesReadDRAM                   52608                       # Total number of bytes read from DRAM
system.mem_ctrl.bytesReadWrQ                    35456                       # Total number of bytes read from write queue
system.mem_ctrl.bytesWritten                    58240                       # Total number of bytes written to DRAM
system.mem_ctrl.bytesReadSys                    88064                       # Total read bytes from the system interface side
system.mem_ctrl.bytesWrittenSys                 87040                       # Total written bytes from the system interface side
system.mem_ctrl.servicedByWrQ                     554                       # Number of DRAM read bursts serviced by the write queue
system.mem_ctrl.mergedWrBursts                    422                       # Number of DRAM write bursts merged with an existing one
system.mem_ctrl.neitherReadNorWriteReqs             0                       # Number of requests that are neither read nor write
system.mem_ctrl.perBankRdBursts::0                 82                       # Per bank write bursts
system.mem_ctrl.perBankRdBursts::1                 26                       # Per bank write bursts
system.mem_ctrl.perBankRdBursts::2                203                       # Per bank write bursts
system.mem_ctrl.perBankRdBursts::3                154                       # Per bank write bursts
system.mem_ctrl.perBankRdBursts::4                 80                       # Per bank write bursts
system.mem_ctrl.perBankRdBursts::5                 40                       # Per bank write bursts
system.mem_ctrl.perBankRdBursts::6                 11                       # Per bank write bursts
system.mem_ctrl.perBankRdBursts::7                  0                       # Per bank write bursts
system.mem_ctrl.perBankRdBursts::8                  3                       # Per bank write bursts
system.mem_ctrl.perBankRdBursts::9                 70                       # Per bank write bursts
system.mem_ctrl.perBankRdBursts::10                 9                       # Per bank write bursts
system.mem_ctrl.perBankRdBursts::11                11                       # Per bank write bursts
system.mem_ctrl.perBankRdBursts::12                 5                       # Per bank write bursts
system.mem_ctrl.perBankRdBursts::13                40                       # Per bank write bursts
system.mem_ctrl.perBankRdBursts::14                51                       # Per bank write bursts
system.mem_ctrl.perBankRdBursts::15                37                       # Per bank write bursts
system.mem_ctrl.perBankWrBursts::0                 92                       # Per bank write bursts
system.mem_ctrl.perBankWrBursts::1                 28                       # Per bank write bursts
system.mem_ctrl.perBankWrBursts::2                229                       # Per bank write bursts
system.mem_ctrl.perBankWrBursts::3                169                       # Per bank write bursts
system.mem_ctrl.perBankWrBursts::4                 86                       # Per bank write bursts
system.mem_ctrl.perBankWrBursts::5                 49                       # Per bank write bursts
system.mem_ctrl.perBankWrBursts::6                 12                       # Per bank write bursts
system.mem_ctrl.perBankWrBursts::7                  0                       # Per bank write bursts
system.mem_ctrl.perBankWrBursts::8                  3                       # Per bank write bursts
system.mem_ctrl.perBankWrBursts::9                 94                       # Per bank write bursts
system.mem_ctrl.perBankWrBursts::10                12                       # Per bank write bursts
system.mem_ctrl.perBankWrBursts::11                11                       # Per bank write bursts
system.mem_ctrl.perBankWrBursts::12                 5                       # Per bank write bursts
system.mem_ctrl.perBankWrBursts::13                38                       # Per bank write bursts
system.mem_ctrl.perBankWrBursts::14                51                       # Per bank write bursts
system.mem_ctrl.perBankWrBursts::15                31                       # Per bank write bursts
system.mem_ctrl.numRdRetry                          0                       # Number of times read queue was full causing retry
system.mem_ctrl.numWrRetry                          0                       # Number of times write queue was full causing retry
system.mem_ctrl.totGap                       78685000                       # Total gap between requests
system.mem_ctrl.readPktSize::0                      0                       # Read request sizes (log2)
system.mem_ctrl.readPktSize::1                      0                       # Read request sizes (log2)
system.mem_ctrl.readPktSize::2                      0                       # Read request sizes (log2)
system.mem_ctrl.readPktSize::3                      0                       # Read request sizes (log2)
system.mem_ctrl.readPktSize::4                      0                       # Read request sizes (log2)
system.mem_ctrl.readPktSize::5                      0                       # Read request sizes (log2)
system.mem_ctrl.readPktSize::6                   1376                       # Read request sizes (log2)
system.mem_ctrl.writePktSize::0                     0                       # Write request sizes (log2)
system.mem_ctrl.writePktSize::1                     0                       # Write request sizes (log2)
system.mem_ctrl.writePktSize::2                     0                       # Write request sizes (log2)
system.mem_ctrl.writePktSize::3                     0                       # Write request sizes (log2)
system.mem_ctrl.writePktSize::4                     0                       # Write request sizes (log2)
system.mem_ctrl.writePktSize::5                     0                       # Write request sizes (log2)
system.mem_ctrl.writePktSize::6                  1360                       # Write request sizes (log2)
system.mem_ctrl.rdQLenPdf::0                      822                       # What read queue length does an incoming req see
system.mem_ctrl.rdQLenPdf::1                        0                       # What read queue length does an incoming req see
system.mem_ctrl.rdQLenPdf::2                        0                       # What read queue length does an incoming req see
system.mem_ctrl.rdQLenPdf::3                        0                       # What read queue length does an incoming req see
system.mem_ctrl.rdQLenPdf::4                        0                       # What read queue length does an incoming req see
system.mem_ctrl.rdQLenPdf::5                        0                       # What read queue length does an incoming req see
system.mem_ctrl.rdQLenPdf::6                        0                       # What read queue length does an incoming req see
system.mem_ctrl.rdQLenPdf::7                        0                       # What read queue length does an incoming req see
system.mem_ctrl.rdQLenPdf::8                        0                       # What read queue length does an incoming req see
system.mem_ctrl.rdQLenPdf::9                        0                       # What read queue length does an incoming req see
system.mem_ctrl.rdQLenPdf::10                       0                       # What read queue length does an incoming req see
system.mem_ctrl.rdQLenPdf::11                       0                       # What read queue length does an incoming req see
system.mem_ctrl.rdQLenPdf::12                       0                       # What read queue length does an incoming req see
system.mem_ctrl.rdQLenPdf::13                       0                       # What read queue length does an incoming req see
system.mem_ctrl.rdQLenPdf::14                       0                       # What read queue length does an incoming req see
system.mem_ctrl.rdQLenPdf::15                       0                       # What read queue length does an incoming req see
system.mem_ctrl.rdQLenPdf::16                       0                       # What read queue length does an incoming req see
system.mem_ctrl.rdQLenPdf::17                       0                       # What read queue length does an incoming req see
system.mem_ctrl.rdQLenPdf::18                       0                       # What read queue length does an incoming req see
system.mem_ctrl.rdQLenPdf::19                       0                       # What read queue length does an incoming req see
system.mem_ctrl.rdQLenPdf::20                       0                       # What read queue length does an incoming req see
system.mem_ctrl.rdQLenPdf::21                       0                       # What read queue length does an incoming req see
system.mem_ctrl.rdQLenPdf::22                       0                       # What read queue length does an incoming req see
system.mem_ctrl.rdQLenPdf::23                       0                       # What read queue length does an incoming req see
system.mem_ctrl.rdQLenPdf::24                       0                       # What read queue length does an incoming req see
system.mem_ctrl.rdQLenPdf::25                       0                       # What read queue length does an incoming req see
system.mem_ctrl.rdQLenPdf::26                       0                       # What read queue length does an incoming req see
system.mem_ctrl.rdQLenPdf::27                       0                       # What read queue length does an incoming req see
system.mem_ctrl.rdQLenPdf::28                       0                       # What read queue length does an incoming req see
system.mem_ctrl.rdQLenPdf::29                       0                       # What read queue length does an incoming req see
system.mem_ctrl.rdQLenPdf::30                       0                       # What read queue length does an incoming req see
system.mem_ctrl.rdQLenPdf::31                       0                       # What read queue length does an incoming req see
system.mem_ctrl.wrQLenPdf::0                        1                       # What write queue length does an incoming req see
system.mem_ctrl.wrQLenPdf::1                        1                       # What write queue length does an incoming req see
system.mem_ctrl.wrQLenPdf::2                        1                       # What write queue length does an incoming req see
system.mem_ctrl.wrQLenPdf::3                        1                       # What write queue length does an incoming req see
system.mem_ctrl.wrQLenPdf::4                        1                       # What write queue length does an incoming req see
system.mem_ctrl.wrQLenPdf::5                        1                       # What write queue length does an incoming req see
system.mem_ctrl.wrQLenPdf::6                        1                       # What write queue length does an incoming req see
system.mem_ctrl.wrQLenPdf::7                        1                       # What write queue length does an incoming req see
system.mem_ctrl.wrQLenPdf::8                        1                       # What write queue length does an incoming req see
system.mem_ctrl.wrQLenPdf::9                        1                       # What write queue length does an incoming req see
system.mem_ctrl.wrQLenPdf::10                       1                       # What write queue length does an incoming req see
system.mem_ctrl.wrQLenPdf::11                       1                       # What write queue length does an incoming req see
system.mem_ctrl.wrQLenPdf::12                       1                       # What write queue length does an incoming req see
system.mem_ctrl.wrQLenPdf::13                       1                       # What write queue length does an incoming req see
system.mem_ctrl.wrQLenPdf::14                       1                       # What write queue length does an incoming req see
system.mem_ctrl.wrQLenPdf::15                       5                       # What write queue length does an incoming req see
system.mem_ctrl.wrQLenPdf::16                       6                       # What write queue length does an incoming req see
system.mem_ctrl.wrQLenPdf::17                      45                       # What write queue length does an incoming req see
system.mem_ctrl.wrQLenPdf::18                      57                       # What write queue length does an incoming req see
system.mem_ctrl.wrQLenPdf::19                      59                       # What write queue length does an incoming req see
system.mem_ctrl.wrQLenPdf::20                      60                       # What write queue length does an incoming req see
system.mem_ctrl.wrQLenPdf::21                      57                       # What write queue length does an incoming req see
system.mem_ctrl.wrQLenPdf::22                      58                       # What write queue length does an incoming req see
system.mem_ctrl.wrQLenPdf::23                      63                       # What write queue length does an incoming req see
system.mem_ctrl.wrQLenPdf::24                      61                       # What write queue length does an incoming req see
system.mem_ctrl.wrQLenPdf::25                      57                       # What write queue length does an incoming req see
system.mem_ctrl.wrQLenPdf::26                      57                       # What write queue length does an incoming req see
system.mem_ctrl.wrQLenPdf::27                      57                       # What write queue length does an incoming req see
system.mem_ctrl.wrQLenPdf::28                      56                       # What write queue length does an incoming req see
system.mem_ctrl.wrQLenPdf::29                      56                       # What write queue length does an incoming req see
system.mem_ctrl.wrQLenPdf::30                      56                       # What write queue length does an incoming req see
system.mem_ctrl.wrQLenPdf::31                      56                       # What write queue length does an incoming req see
system.mem_ctrl.wrQLenPdf::32                      56                       # What write queue length does an incoming req see
system.mem_ctrl.wrQLenPdf::33                       1                       # What write queue length does an incoming req see
system.mem_ctrl.wrQLenPdf::34                       0                       # What write queue length does an incoming req see
system.mem_ctrl.wrQLenPdf::35                       0                       # What write queue length does an incoming req see
system.mem_ctrl.wrQLenPdf::36                       0                       # What write queue length does an incoming req see
system.mem_ctrl.wrQLenPdf::37                       0                       # What write queue length does an incoming req see
system.mem_ctrl.wrQLenPdf::38                       0                       # What write queue length does an incoming req see
system.mem_ctrl.wrQLenPdf::39                       0                       # What write queue length does an incoming req see
system.mem_ctrl.wrQLenPdf::40                       0                       # What write queue length does an incoming req see
system.mem_ctrl.wrQLenPdf::41                       0                       # What write queue length does an incoming req see
system.mem_ctrl.wrQLenPdf::42                       0                       # What write queue length does an incoming req see
system.mem_ctrl.wrQLenPdf::43                       0                       # What write queue length does an incoming req see
system.mem_ctrl.wrQLenPdf::44                       0                       # What write queue length does an incoming req see
system.mem_ctrl.wrQLenPdf::45                       0                       # What write queue length does an incoming req see
system.mem_ctrl.wrQLenPdf::46                       0                       # What write queue length does an incoming req see
system.mem_ctrl.wrQLenPdf::47                       0                       # What write queue length does an incoming req see
system.mem_ctrl.wrQLenPdf::48                       0                       # What write queue length does an incoming req see
system.mem_ctrl.wrQLenPdf::49                       0                       # What write queue length does an incoming req see
system.mem_ctrl.wrQLenPdf::50                       0                       # What write queue length does an incoming req see
system.mem_ctrl.wrQLenPdf::51                       0                       # What write queue length does an incoming req see
system.mem_ctrl.wrQLenPdf::52                       0                       # What write queue length does an incoming req see
system.mem_ctrl.wrQLenPdf::53                       0                       # What write queue length does an incoming req see
system.mem_ctrl.wrQLenPdf::54                       0                       # What write queue length does an incoming req see
system.mem_ctrl.wrQLenPdf::55                       0                       # What write queue length does an incoming req see
system.mem_ctrl.wrQLenPdf::56                       0                       # What write queue length does an incoming req see
system.mem_ctrl.wrQLenPdf::57                       0                       # What write queue length does an incoming req see
system.mem_ctrl.wrQLenPdf::58                       0                       # What write queue length does an incoming req see
system.mem_ctrl.wrQLenPdf::59                       0                       # What write queue length does an incoming req see
system.mem_ctrl.wrQLenPdf::60                       0                       # What write queue length does an incoming req see
system.mem_ctrl.wrQLenPdf::61                       0                       # What write queue length does an incoming req see
system.mem_ctrl.wrQLenPdf::62                       0                       # What write queue length does an incoming req see
system.mem_ctrl.wrQLenPdf::63                       0                       # What write queue length does an incoming req see
system.mem_ctrl.bytesPerActivate::samples          280                       # Bytes accessed per row activation
system.mem_ctrl.bytesPerActivate::mean     394.742857                       # Bytes accessed per row activation
system.mem_ctrl.bytesPerActivate::gmean    243.955384                       # Bytes accessed per row activation
system.mem_ctrl.bytesPerActivate::stdev    352.653380                       # Bytes accessed per row activation
system.mem_ctrl.bytesPerActivate::0-127            74     26.43%     26.43% # Bytes accessed per row activation
system.mem_ctrl.bytesPerActivate::128-255           61     21.79%     48.21% # Bytes accessed per row activation
system.mem_ctrl.bytesPerActivate::256-383           30     10.71%     58.93% # Bytes accessed per row activation
system.mem_ctrl.bytesPerActivate::384-511           20      7.14%     66.07% # Bytes accessed per row activation
system.mem_ctrl.bytesPerActivate::512-639           19      6.79%     72.86% # Bytes accessed per row activation
system.mem_ctrl.bytesPerActivate::640-767           16      5.71%     78.57% # Bytes accessed per row activation
system.mem_ctrl.bytesPerActivate::768-895            9      3.21%     81.79% # Bytes accessed per row activation
system.mem_ctrl.bytesPerActivate::896-1023            9      3.21%     85.00% # Bytes accessed per row activation
system.mem_ctrl.bytesPerActivate::1024-1151           42     15.00%    100.00% # Bytes accessed per row activation
system.mem_ctrl.bytesPerActivate::total           280                       # Bytes accessed per row activation
system.mem_ctrl.rdPerTurnAround::samples           56                       # Reads before turning the bus around for writes
system.mem_ctrl.rdPerTurnAround::mean       14.500000                       # Reads before turning the bus around for writes
system.mem_ctrl.rdPerTurnAround::gmean      13.841680                       # Reads before turning the bus around for writes
system.mem_ctrl.rdPerTurnAround::stdev       5.315500                       # Reads before turning the bus around for writes
system.mem_ctrl.rdPerTurnAround::4-5                1      1.79%      1.79% # Reads before turning the bus around for writes
system.mem_ctrl.rdPerTurnAround::8-9                5      8.93%     10.71% # Reads before turning the bus around for writes
system.mem_ctrl.rdPerTurnAround::10-11              4      7.14%     17.86% # Reads before turning the bus around for writes
system.mem_ctrl.rdPerTurnAround::12-13              9     16.07%     33.93% # Reads before turning the bus around for writes
system.mem_ctrl.rdPerTurnAround::14-15             23     41.07%     75.00% # Reads before turning the bus around for writes
system.mem_ctrl.rdPerTurnAround::16-17              6     10.71%     85.71% # Reads before turning the bus around for writes
system.mem_ctrl.rdPerTurnAround::18-19              6     10.71%     96.43% # Reads before turning the bus around for writes
system.mem_ctrl.rdPerTurnAround::20-21              1      1.79%     98.21% # Reads before turning the bus around for writes
system.mem_ctrl.rdPerTurnAround::46-47              1      1.79%    100.00% # Reads before turning the bus around for writes
system.mem_ctrl.rdPerTurnAround::total             56                       # Reads before turning the bus around for writes
system.mem_ctrl.wrPerTurnAround::samples           56                       # Writes before turning the bus around for reads
system.mem_ctrl.wrPerTurnAround::mean       16.250000                       # Writes before turning the bus around for reads
system.mem_ctrl.wrPerTurnAround::gmean      16.229211                       # Writes before turning the bus around for reads
system.mem_ctrl.wrPerTurnAround::stdev       0.879049                       # Writes before turning the bus around for reads
system.mem_ctrl.wrPerTurnAround::16                51     91.07%     91.07% # Writes before turning the bus around for reads
system.mem_ctrl.wrPerTurnAround::17                 1      1.79%     92.86% # Writes before turning the bus around for reads
system.mem_ctrl.wrPerTurnAround::18                 1      1.79%     94.64% # Writes before turning the bus around for reads
system.mem_ctrl.wrPerTurnAround::19                 1      1.79%     96.43% # Writes before turning the bus around for reads
system.mem_ctrl.wrPerTurnAround::20                 2      3.57%    100.00% # Writes before turning the bus around for reads
system.mem_ctrl.wrPerTurnAround::total             56                       # Writes before turning the bus around for reads
system.mem_ctrl.totQLat                      15044500                       # Total ticks spent queuing
system.mem_ctrl.totMemAccLat                 30457000                       # Total ticks spent from burst creation until serviced by the DRAM
system.mem_ctrl.totBusLat                     4110000                       # Total ticks spent in databus transfers
system.mem_ctrl.avgQLat                      18302.31                       # Average queueing delay per DRAM burst
system.mem_ctrl.avgBusLat                     5000.00                       # Average bus latency per DRAM burst
system.mem_ctrl.avgMemAccLat                 37052.31                       # Average memory access latency per DRAM burst
system.mem_ctrl.avgRdBW                        668.53                       # Average DRAM read bandwidth in MiByte/s
system.mem_ctrl.avgWrBW                        740.10                       # Average achieved write bandwidth in MiByte/s
system.mem_ctrl.avgRdBWSys                    1119.10                       # Average system read bandwidth in MiByte/s
system.mem_ctrl.avgWrBWSys                    1106.08                       # Average system write bandwidth in MiByte/s
system.mem_ctrl.peakBW                       12800.00                       # Theoretical peak bandwidth in MiByte/s
system.mem_ctrl.busUtil                         11.00                       # Data bus utilization in percentage
system.mem_ctrl.busUtilRead                      5.22                       # Data bus utilization in percentage for reads
system.mem_ctrl.busUtilWrite                     5.78                       # Data bus utilization in percentage for writes
system.mem_ctrl.avgRdQLen                        1.00                       # Average read queue length when enqueuing
system.mem_ctrl.avgWrQLen                       25.75                       # Average write queue length when enqueuing
system.mem_ctrl.readRowHits                       602                       # Number of row buffer hits during reads
system.mem_ctrl.writeRowHits                      846                       # Number of row buffer hits during writes
system.mem_ctrl.readRowHitRate                  73.24                       # Row buffer hit rate for reads
system.mem_ctrl.writeRowHitRate                 90.19                       # Row buffer hit rate for writes
system.mem_ctrl.avgGap                       28759.14                       # Average gap between requests
system.mem_ctrl.pageHitRate                     82.27                       # Row buffer hit rate, read and write combined
system.mem_ctrl_0.actEnergy                   1585080                       # Energy for activate commands per rank (pJ)
system.mem_ctrl_0.preEnergy                    831105                       # Energy for precharge commands per rank (pJ)
system.mem_ctrl_0.readEnergy                  4255440                       # Energy for read commands per rank (pJ)
system.mem_ctrl_0.writeEnergy                 3471300                       # Energy for write commands per rank (pJ)
system.mem_ctrl_0.refreshEnergy          6146400.000000                       # Energy for refresh commands per rank (pJ)
system.mem_ctrl_0.actBackEnergy              15296520                       # Energy for active background per rank (pJ)
system.mem_ctrl_0.preBackEnergy                131040                       # Energy for precharge background per rank (pJ)
system.mem_ctrl_0.actPowerDownEnergy         18652110                       # Energy for active power-down per rank (pJ)
system.mem_ctrl_0.prePowerDownEnergy          1498560                       # Energy for precharge power-down per rank (pJ)
system.mem_ctrl_0.selfRefreshEnergy                 0                       # Energy for self refresh per rank (pJ)
system.mem_ctrl_0.totalEnergy                51867555                       # Total energy per rank (pJ)
system.mem_ctrl_0.averagePower             659.116879                       # Core power per rank (mW)
system.mem_ctrl_0.totalIdleTime              44736500                       # Total Idle time Per DRAM Rank
system.mem_ctrl_0.memoryStateTime::IDLE         37000                       # Time in different power states
system.mem_ctrl_0.memoryStateTime::REF        2600000                       # Time in different power states
system.mem_ctrl_0.memoryStateTime::SREF             0                       # Time in different power states
system.mem_ctrl_0.memoryStateTime::PRE_PDN      3902000                       # Time in different power states
system.mem_ctrl_0.memoryStateTime::ACT       31257250                       # Time in different power states
system.mem_ctrl_0.memoryStateTime::ACT_PDN     40895750                       # Time in different power states
system.mem_ctrl_1.actEnergy                    442680                       # Energy for activate commands per rank (pJ)
system.mem_ctrl_1.preEnergy                    231495                       # Energy for precharge commands per rank (pJ)
system.mem_ctrl_1.readEnergy                  1613640                       # Energy for read commands per rank (pJ)
system.mem_ctrl_1.writeEnergy                 1278900                       # Energy for write commands per rank (pJ)
system.mem_ctrl_1.refreshEnergy          6146400.000000                       # Energy for refresh commands per rank (pJ)
system.mem_ctrl_1.actBackEnergy              10135740                       # Energy for active background per rank (pJ)
system.mem_ctrl_1.preBackEnergy                292800                       # Energy for precharge background per rank (pJ)
system.mem_ctrl_1.actPowerDownEnergy         20476110                       # Energy for active power-down per rank (pJ)
system.mem_ctrl_1.prePowerDownEnergy          4146720                       # Energy for precharge power-down per rank (pJ)
system.mem_ctrl_1.selfRefreshEnergy                 0                       # Energy for self refresh per rank (pJ)
system.mem_ctrl_1.totalEnergy                44764485                       # Total energy per rank (pJ)
system.mem_ctrl_1.averagePower             568.853258                       # Core power per rank (mW)
system.mem_ctrl_1.totalIdleTime              55327500                       # Total Idle time Per DRAM Rank
system.mem_ctrl_1.memoryStateTime::IDLE        474000                       # Time in different power states
system.mem_ctrl_1.memoryStateTime::REF        2600000                       # Time in different power states
system.mem_ctrl_1.memoryStateTime::SREF             0                       # Time in different power states
system.mem_ctrl_1.memoryStateTime::PRE_PDN     10794750                       # Time in different power states
system.mem_ctrl_1.memoryStateTime::ACT       19919750                       # Time in different power states
system.mem_ctrl_1.memoryStateTime::ACT_PDN     44903500                       # Time in different power states
system.pwrStateResidencyTicks::UNDEFINED     78692000                       # Cumulative time (in ticks) in various power states
system.cache.pwrStateResidencyTicks::UNDEFINED     78692000                       # Cumulative time (in ticks) in various power states
system.cache.hits                                8926                       # Number of hits
system.cache.misses                              1376                       # Number of misses
system.cache.missLatency::samples                1376                       # Ticks for misses to the cache
system.cache.missLatency::mean           49702.034884                       # Ticks for misses to the cache
system.cache.missLatency::gmean          41447.009435                       # Ticks for misses to the cache
system.cache.missLatency::stdev          34484.946221                       # Ticks for misses to the cache
system.cache.missLatency::0-32767                 554     40.26%     40.26% # Ticks for misses to the cache
system.cache.missLatency::32768-65535             583     42.37%     82.63% # Ticks for misses to the cache
system.cache.missLatency::65536-98303             176     12.79%     95.42% # Ticks for misses to the cache
system.cache.missLatency::98304-131071             17      1.24%     96.66% # Ticks for misses to the cache
system.cache.missLatency::131072-163839            32      2.33%     98.98% # Ticks for misses to the cache
system.cache.missLatency::163840-196607             5      0.36%     99.35% # Ticks for misses to the cache
system.cache.missLatency::196608-229375             0      0.00%     99.35% # Ticks for misses to the cache
system.cache.missLatency::229376-262143             0      0.00%     99.35% # Ticks for misses to the cache
system.cache.missLatency::262144-294911             5      0.36%     99.71% # Ticks for misses to the cache
system.cache.missLatency::294912-327679             3      0.22%     99.93% # Ticks for misses to the cache
system.cache.missLatency::327680-360447             1      0.07%    100.00% # Ticks for misses to the cache
system.cache.missLatency::360448-393215             0      0.00%    100.00% # Ticks for misses to the cache
system.cache.missLatency::393216-425983             0      0.00%    100.00% # Ticks for misses to the cache
system.cache.missLatency::425984-458751             0      0.00%    100.00% # Ticks for misses to the cache
system.cache.missLatency::458752-491519             0      0.00%    100.00% # Ticks for misses to the cache
system.cache.missLatency::491520-524287             0      0.00%    100.00% # Ticks for misses to the cache
system.cache.missLatency::total                  1376                       # Ticks for misses to the cache
system.cache.hitRatio                        0.866434                       # The ratio of hits to the total accesses to the cache
system.cpu.dtb.fetch_hits                           0                       # ITB hits
system.cpu.dtb.fetch_misses                         0                       # ITB misses
system.cpu.dtb.fetch_acv                            0                       # ITB acv
system.cpu.dtb.fetch_accesses                       0                       # ITB accesses
system.cpu.dtb.read_hits                         1522                       # DTB read hits
system.cpu.dtb.read_misses                         10                       # DTB read misses
system.cpu.dtb.read_acv                             0                       # DTB read access violations
system.cpu.dtb.read_accesses                     1532                       # DTB read accesses
system.cpu.dtb.write_hits                        1036                       # DTB write hits
system.cpu.dtb.write_misses                         2                       # DTB write misses
system.cpu.dtb.write_acv                            0                       # DTB write access violations
system.cpu.dtb.write_accesses                    1038                       # DTB write accesses
system.cpu.dtb.data_hits                         2558                       # DTB hits
system.cpu.dtb.data_misses                         12                       # DTB misses
system.cpu.dtb.data_acv                             0                       # DTB access violations
system.cpu.dtb.data_accesses                     2570                       # DTB accesses
system.cpu.itb.fetch_hits                        7745                       # ITB hits
system.cpu.itb.fetch_misses                        18                       # ITB misses
system.cpu.itb.fetch_acv                            0                       # ITB acv
system.cpu.itb.fetch_accesses                    7763                       # ITB accesses
system.cpu.itb.read_hits                            0                       # DTB read hits
system.cpu.itb.read_misses                          0                       # DTB read misses
system.cpu.itb.read_acv                             0                       # DTB read access violations
system.cpu.itb.read_accesses                        0                       # DTB read accesses
system.cpu.itb.write_hits                           0                       # DTB write hits
system.cpu.itb.write_misses                         0                       # DTB write misses
system.cpu.itb.write_acv                            0                       # DTB write access violations
system.cpu.itb.write_accesses                       0                       # DTB write accesses
system.cpu.itb.data_hits                            0                       # DTB hits
system.cpu.itb.data_misses                          0                       # DTB misses
system.cpu.itb.data_acv                             0                       # DTB access violations
system.cpu.itb.data_accesses                        0                       # DTB accesses
system.cpu.workload.numSyscalls                    10                       # Number of system calls
system.cpu.pwrStateResidencyTicks::ON        78692000                       # Cumulative time (in ticks) in various power states
system.cpu.numCycles                            78692                       # number of cpu cycles simulated
system.cpu.numWorkItemsStarted                      0                       # number of work items this cpu started
system.cpu.numWorkItemsCompleted                    0                       # number of work items this cpu completed
system.cpu.committedInsts                        7732                       # Number of instructions committed
system.cpu.committedOps                          7732                       # Number of ops (including micro ops) committed
system.cpu.num_int_alu_accesses                  7647                       # Number of integer alu accesses
system.cpu.num_fp_alu_accesses                     17                       # Number of float alu accesses
system.cpu.num_vec_alu_accesses                     0                       # Number of vector alu accesses
system.cpu.num_func_calls                         259                       # number of times a function call or return occured
system.cpu.num_conditional_control_insts          902                       # number of instructions that are conditional controls
system.cpu.num_int_insts                         7647                       # number of integer instructions
system.cpu.num_fp_insts                            17                       # number of float instructions
system.cpu.num_vec_insts                            0                       # number of vector instructions
system.cpu.num_int_register_reads               10167                       # number of times the integer registers were read
system.cpu.num_int_register_writes               5558                       # number of times the integer registers were written
system.cpu.num_fp_register_reads                   14                       # number of times the floating registers were read
system.cpu.num_fp_register_writes                   5                       # number of times the floating registers were written
system.cpu.num_vec_register_reads                   0                       # number of times the vector registers were read
system.cpu.num_vec_register_writes                  0                       # number of times the vector registers were written
system.cpu.num_mem_refs                          2570                       # number of memory refs
system.cpu.num_load_insts                        1532                       # Number of load instructions
system.cpu.num_store_insts                       1038                       # Number of store instructions
system.cpu.num_idle_cycles                          0                       # Number of idle cycles
system.cpu.num_busy_cycles                      78692                       # Number of busy cycles
system.cpu.not_idle_fraction                        1                       # Percentage of non-idle cycles
system.cpu.idle_fraction                            0                       # Percentage of idle cycles
system.cpu.Branches                              1236                       # Number of branches fetched
system.cpu.op_class::No_OpClass                    22      0.28%      0.28% # Class of executed instruction
system.cpu.op_class::IntAlu                      5147     66.46%     66.75% # Class of executed instruction
system.cpu.op_class::IntMult                        1      0.01%     66.76% # Class of executed instruction
system.cpu.op_class::IntDiv                         0      0.00%     66.76% # Class of executed instruction
system.cpu.op_class::FloatAdd                       3      0.04%     66.80% # Class of executed instruction
system.cpu.op_class::FloatCmp                       1      0.01%     66.81% # Class of executed instruction
system.cpu.op_class::FloatCvt                       0      0.00%     66.81% # Class of executed instruction
system.cpu.op_class::FloatMult                      0      0.00%     66.81% # Class of executed instruction
system.cpu.op_class::FloatMultAcc                   0      0.00%     66.81% # Class of executed instruction
system.cpu.op_class::FloatDiv                       0      0.00%     66.81% # Class of executed instruction
system.cpu.op_class::FloatMisc                      0      0.00%     66.81% # Class of executed instruction
system.cpu.op_class::FloatSqrt                      0      0.00%     66.81% # Class of executed instruction
system.cpu.op_class::SimdAdd                        0      0.00%     66.81% # Class of executed instruction
system.cpu.op_class::SimdAddAcc                     0      0.00%     66.81% # Class of executed instruction
system.cpu.op_class::SimdAlu                        0      0.00%     66.81% # Class of executed instruction
system.cpu.op_class::SimdCmp                        0      0.00%     66.81% # Class of executed instruction
system.cpu.op_class::SimdCvt                        0      0.00%     66.81% # Class of executed instruction
system.cpu.op_class::SimdMisc                       0      0.00%     66.81% # Class of executed instruction
system.cpu.op_class::SimdMult                       0      0.00%     66.81% # Class of executed instruction
system.cpu.op_class::SimdMultAcc                    0      0.00%     66.81% # Class of executed instruction
system.cpu.op_class::SimdShift                      0      0.00%     66.81% # Class of executed instruction
system.cpu.op_class::SimdShiftAcc                   0      0.00%     66.81% # Class of executed instruction
system.cpu.op_class::SimdSqrt                       0      0.00%     66.81% # Class of executed instruction
system.cpu.op_class::SimdFloatAdd                   0      0.00%     66.81% # Class of executed instruction
system.cpu.op_class::SimdFloatAlu                   0      0.00%     66.81% # Class of executed instruction
system.cpu.op_class::SimdFloatCmp                   0      0.00%     66.81% # Class of executed instruction
system.cpu.op_class::SimdFloatCvt                   0      0.00%     66.81% # Class of executed instruction
system.cpu.op_class::SimdFloatDiv                   0      0.00%     66.81% # Class of executed instruction
system.cpu.op_class::SimdFloatMisc                  0      0.00%     66.81% # Class of executed instruction
system.cpu.op_class::SimdFloatMult                  0      0.00%     66.81% # Class of executed instruction
system.cpu.op_class::SimdFloatMultAcc               0      0.00%     66.81% # Class of executed instruction
system.cpu.op_class::SimdFloatSqrt                  0      0.00%     66.81% # Class of executed instruction
system.cpu.op_class::MemRead                     1529     19.74%     86.56% # Class of executed instruction
system.cpu.op_class::MemWrite                    1028     13.27%     99.83% # Class of executed instruction
system.cpu.op_class::FloatMemRead                   3      0.04%     99.87% # Class of executed instruction
system.cpu.op_class::FloatMemWrite                 10      0.13%    100.00% # Class of executed instruction
system.cpu.op_class::IprAccess                      0      0.00%    100.00% # Class of executed instruction
system.cpu.op_class::InstPrefetch                   0      0.00%    100.00% # Class of executed instruction
system.cpu.op_class::total                       7744                       # Class of executed instruction
system.membus.snoop_filter.tot_requests             0                       # Total number of requests made to the snoop filter.
system.membus.snoop_filter.hit_single_requests            0                       # Number of requests hitting in the snoop filter with a single holder of the requested data.
system.membus.snoop_filter.hit_multi_requests            0                       # Number of requests hitting in the snoop filter with multiple (>1) holders of the requested data.
system.membus.snoop_filter.tot_snoops               0                       # Total number of snoops made to the snoop filter.
system.membus.snoop_filter.hit_single_snoops            0                       # Number of snoops hitting in the snoop filter with a single holder of the requested data.
system.membus.snoop_filter.hit_multi_snoops            0                       # Number of snoops hitting in the snoop filter with multiple (>1) holders of the requested data.
system.membus.pwrStateResidencyTicks::UNDEFINED     78692000                       # Cumulative time (in ticks) in various power states
system.membus.trans_dist::ReadReq                1376                       # Transaction distribution
system.membus.trans_dist::ReadResp               1376                       # Transaction distribution
system.membus.trans_dist::WritebackDirty         1360                       # Transaction distribution
system.membus.pkt_count_system.cache.mem_side::system.mem_ctrl.port         4112                       # Packet count per connected master and slave (bytes)
system.membus.pkt_count::total                   4112                       # Packet count per connected master and slave (bytes)
system.membus.pkt_size_system.cache.mem_side::system.mem_ctrl.port       175104                       # Cumulative packet size per connected master and slave (bytes)
system.membus.pkt_size::total                  175104                       # Cumulative packet size per connected master and slave (bytes)
system.membus.snoops                                0                       # Total snoops (count)
system.membus.snoopTraffic                          0                       # Total snoop traffic (bytes)
system.membus.snoop_fanout::samples              1376                       # Request fanout histogram
system.membus.snoop_fanout::mean                    0                       # Request fanout histogram
system.membus.snoop_fanout::stdev                   0                       # Request fanout histogram
system.membus.snoop_fanout::underflows              0      0.00%      0.00% # Request fanout histogram
system.membus.snoop_fanout::0                    1376    100.00%    100.00% # Request fanout histogram
system.membus.snoop_fanout::overflows               0      0.00%    100.00% # Request fanout histogram
system.membus.snoop_fanout::min_value               0                       # Request fanout histogram
system.membus.snoop_fanout::max_value               0                       # Request fanout histogram
system.membus.snoop_fanout::total                1376                       # Request fanout histogram
system.membus.reqLayer0.occupancy             8176000                       # Layer occupancy (ticks)
system.membus.reqLayer0.utilization              10.4                       # Layer utilization (%)
system.membus.respLayer0.occupancy            7148000                       # Layer occupancy (ticks)
system.membus.respLayer0.utilization              9.1                       # Layer utilization (%)

---------- End Simulation Statistics   ----------
