
---------- Begin Simulation Statistics ----------
sim_seconds                                  0.000190                       # Number of seconds simulated
sim_ticks                                   190340000                       # Number of ticks simulated
final_tick                                  190340000                       # Number of ticks from beginning of simulation (restored from checkpoints and never reset)
sim_freq                                 1000000000000                       # Frequency of simulated ticks
host_inst_rate                                 254300                       # Simulator instruction rate (inst/s)
host_op_rate                                   254217                       # Simulator op (including micro ops) rate (op/s)
host_tick_rate                             6256245070                       # Simulator tick rate (ticks/s)
host_mem_usage                                6706324                       # Number of bytes of host memory used
host_seconds                                     0.03                       # Real time elapsed on the host
sim_insts                                        7732                       # Number of instructions simulated
sim_ops                                          7732                       # Number of ops (including micro ops) simulated
system.clk_domain.voltage_domain.voltage            1                       # Voltage in Volts
system.clk_domain.clock                          1000                       # Clock period in ticks
system.mem_ctrl.pwrStateResidencyTicks::UNDEFINED    190340000                       # Cumulative time (in ticks) in various power states
system.mem_ctrl.bytes_read::cpu.inst           224192                       # Number of bytes read from this memory
system.mem_ctrl.bytes_read::cpu.data           154432                       # Number of bytes read from this memory
system.mem_ctrl.bytes_read::total              378624                       # Number of bytes read from this memory
system.mem_ctrl.bytes_inst_read::cpu.inst       224192                       # Number of instructions bytes read from this memory
system.mem_ctrl.bytes_inst_read::total         224192                       # Number of instructions bytes read from this memory
system.mem_ctrl.bytes_written::writebacks       377600                       # Number of bytes written to this memory
system.mem_ctrl.bytes_written::total           377600                       # Number of bytes written to this memory
system.mem_ctrl.num_reads::cpu.inst              3503                       # Number of read requests responded to by this memory
system.mem_ctrl.num_reads::cpu.data              2413                       # Number of read requests responded to by this memory
system.mem_ctrl.num_reads::total                 5916                       # Number of read requests responded to by this memory
system.mem_ctrl.num_writes::writebacks           5900                       # Number of write requests responded to by this memory
system.mem_ctrl.num_writes::total                5900                       # Number of write requests responded to by this memory
system.mem_ctrl.bw_read::cpu.inst          1177850163                       # Total read bandwidth from this memory (bytes/s)
system.mem_ctrl.bw_read::cpu.data           811348114                       # Total read bandwidth from this memory (bytes/s)
system.mem_ctrl.bw_read::total             1989198277                       # Total read bandwidth from this memory (bytes/s)
system.mem_ctrl.bw_inst_read::cpu.inst     1177850163                       # Instruction read bandwidth from this memory (bytes/s)
system.mem_ctrl.bw_inst_read::total        1177850163                       # Instruction read bandwidth from this memory (bytes/s)
system.mem_ctrl.bw_write::writebacks       1983818430                       # Write bandwidth from this memory (bytes/s)
system.mem_ctrl.bw_write::total            1983818430                       # Write bandwidth from this memory (bytes/s)
system.mem_ctrl.bw_total::writebacks       1983818430                       # Total bandwidth to/from this memory (bytes/s)
system.mem_ctrl.bw_total::cpu.inst         1177850163                       # Total bandwidth to/from this memory (bytes/s)
system.mem_ctrl.bw_total::cpu.data          811348114                       # Total bandwidth to/from this memory (bytes/s)
system.mem_ctrl.bw_total::total            3973016707                       # Total bandwidth to/from this memory (bytes/s)
system.mem_ctrl.readReqs                         5916                       # Number of read requests accepted
system.mem_ctrl.writeReqs                        5900                       # Number of write requests accepted
system.mem_ctrl.readBursts                       5916                       # Number of DRAM read bursts, including those serviced by the write queue
system.mem_ctrl.writeBursts                      5900                       # Number of DRAM write bursts, including those merged in the write queue
system.mem_ctrl.bytesReadDRAM                   57472                       # Total number of bytes read from DRAM
system.mem_ctrl.bytesReadWrQ                   321152                       # Total number of bytes read from write queue
system.mem_ctrl.bytesWritten                    56896                       # Total number of bytes written to DRAM
system.mem_ctrl.bytesReadSys                   378624                       # Total read bytes from the system interface side
system.mem_ctrl.bytesWrittenSys                377600                       # Total written bytes from the system interface side
system.mem_ctrl.servicedByWrQ                    5018                       # Number of DRAM read bursts serviced by the write queue
system.mem_ctrl.mergedWrBursts                   4988                       # Number of DRAM write bursts merged with an existing one
system.mem_ctrl.neitherReadNorWriteReqs             0                       # Number of requests that are neither read nor write
system.mem_ctrl.perBankRdBursts::0                 88                       # Per bank write bursts
system.mem_ctrl.perBankRdBursts::1                 28                       # Per bank write bursts
system.mem_ctrl.perBankRdBursts::2                192                       # Per bank write bursts
system.mem_ctrl.perBankRdBursts::3                177                       # Per bank write bursts
system.mem_ctrl.perBankRdBursts::4                 85                       # Per bank write bursts
system.mem_ctrl.perBankRdBursts::5                 46                       # Per bank write bursts
system.mem_ctrl.perBankRdBursts::6                 13                       # Per bank write bursts
system.mem_ctrl.perBankRdBursts::7                  0                       # Per bank write bursts
system.mem_ctrl.perBankRdBursts::8                  3                       # Per bank write bursts
system.mem_ctrl.perBankRdBursts::9                 89                       # Per bank write bursts
system.mem_ctrl.perBankRdBursts::10                13                       # Per bank write bursts
system.mem_ctrl.perBankRdBursts::11                10                       # Per bank write bursts
system.mem_ctrl.perBankRdBursts::12                 5                       # Per bank write bursts
system.mem_ctrl.perBankRdBursts::13                40                       # Per bank write bursts
system.mem_ctrl.perBankRdBursts::14                56                       # Per bank write bursts
system.mem_ctrl.perBankRdBursts::15                53                       # Per bank write bursts
system.mem_ctrl.perBankWrBursts::0                 88                       # Per bank write bursts
system.mem_ctrl.perBankWrBursts::1                 28                       # Per bank write bursts
system.mem_ctrl.perBankWrBursts::2                190                       # Per bank write bursts
system.mem_ctrl.perBankWrBursts::3                174                       # Per bank write bursts
system.mem_ctrl.perBankWrBursts::4                 83                       # Per bank write bursts
system.mem_ctrl.perBankWrBursts::5                 47                       # Per bank write bursts
system.mem_ctrl.perBankWrBursts::6                 13                       # Per bank write bursts
system.mem_ctrl.perBankWrBursts::7                  0                       # Per bank write bursts
system.mem_ctrl.perBankWrBursts::8                  3                       # Per bank write bursts
system.mem_ctrl.perBankWrBursts::9                 99                       # Per bank write bursts
system.mem_ctrl.perBankWrBursts::10                13                       # Per bank write bursts
system.mem_ctrl.perBankWrBursts::11                10                       # Per bank write bursts
system.mem_ctrl.perBankWrBursts::12                 5                       # Per bank write bursts
system.mem_ctrl.perBankWrBursts::13                39                       # Per bank write bursts
system.mem_ctrl.perBankWrBursts::14                53                       # Per bank write bursts
system.mem_ctrl.perBankWrBursts::15                44                       # Per bank write bursts
system.mem_ctrl.numRdRetry                          0                       # Number of times read queue was full causing retry
system.mem_ctrl.numWrRetry                          0                       # Number of times write queue was full causing retry
system.mem_ctrl.totGap                      190336000                       # Total gap between requests
system.mem_ctrl.readPktSize::0                      0                       # Read request sizes (log2)
system.mem_ctrl.readPktSize::1                      0                       # Read request sizes (log2)
system.mem_ctrl.readPktSize::2                      0                       # Read request sizes (log2)
system.mem_ctrl.readPktSize::3                      0                       # Read request sizes (log2)
system.mem_ctrl.readPktSize::4                      0                       # Read request sizes (log2)
system.mem_ctrl.readPktSize::5                      0                       # Read request sizes (log2)
system.mem_ctrl.readPktSize::6                   5916                       # Read request sizes (log2)
system.mem_ctrl.writePktSize::0                     0                       # Write request sizes (log2)
system.mem_ctrl.writePktSize::1                     0                       # Write request sizes (log2)
system.mem_ctrl.writePktSize::2                     0                       # Write request sizes (log2)
system.mem_ctrl.writePktSize::3                     0                       # Write request sizes (log2)
system.mem_ctrl.writePktSize::4                     0                       # Write request sizes (log2)
system.mem_ctrl.writePktSize::5                     0                       # Write request sizes (log2)
system.mem_ctrl.writePktSize::6                  5900                       # Write request sizes (log2)
system.mem_ctrl.rdQLenPdf::0                      898                       # What read queue length does an incoming req see
system.mem_ctrl.rdQLenPdf::1                        0                       # What read queue length does an incoming req see
system.mem_ctrl.rdQLenPdf::2                        0                       # What read queue length does an incoming req see
system.mem_ctrl.rdQLenPdf::3                        0                       # What read queue length does an incoming req see
system.mem_ctrl.rdQLenPdf::4                        0                       # What read queue length does an incoming req see
system.mem_ctrl.rdQLenPdf::5                        0                       # What read queue length does an incoming req see
system.mem_ctrl.rdQLenPdf::6                        0                       # What read queue length does an incoming req see
system.mem_ctrl.rdQLenPdf::7                        0                       # What read queue length does an incoming req see
system.mem_ctrl.rdQLenPdf::8                        0                       # What read queue length does an incoming req see
system.mem_ctrl.rdQLenPdf::9                        0                       # What read queue length does an incoming req see
system.mem_ctrl.rdQLenPdf::10                       0                       # What read queue length does an incoming req see
system.mem_ctrl.rdQLenPdf::11                       0                       # What read queue length does an incoming req see
system.mem_ctrl.rdQLenPdf::12                       0                       # What read queue length does an incoming req see
system.mem_ctrl.rdQLenPdf::13                       0                       # What read queue length does an incoming req see
system.mem_ctrl.rdQLenPdf::14                       0                       # What read queue length does an incoming req see
system.mem_ctrl.rdQLenPdf::15                       0                       # What read queue length does an incoming req see
system.mem_ctrl.rdQLenPdf::16                       0                       # What read queue length does an incoming req see
system.mem_ctrl.rdQLenPdf::17                       0                       # What read queue length does an incoming req see
system.mem_ctrl.rdQLenPdf::18                       0                       # What read queue length does an incoming req see
system.mem_ctrl.rdQLenPdf::19                       0                       # What read queue length does an incoming req see
system.mem_ctrl.rdQLenPdf::20                       0                       # What read queue length does an incoming req see
system.mem_ctrl.rdQLenPdf::21                       0                       # What read queue length does an incoming req see
system.mem_ctrl.rdQLenPdf::22                       0                       # What read queue length does an incoming req see
system.mem_ctrl.rdQLenPdf::23                       0                       # What read queue length does an incoming req see
system.mem_ctrl.rdQLenPdf::24                       0                       # What read queue length does an incoming req see
system.mem_ctrl.rdQLenPdf::25                       0                       # What read queue length does an incoming req see
system.mem_ctrl.rdQLenPdf::26                       0                       # What read queue length does an incoming req see
system.mem_ctrl.rdQLenPdf::27                       0                       # What read queue length does an incoming req see
system.mem_ctrl.rdQLenPdf::28                       0                       # What read queue length does an incoming req see
system.mem_ctrl.rdQLenPdf::29                       0                       # What read queue length does an incoming req see
system.mem_ctrl.rdQLenPdf::30                       0                       # What read queue length does an incoming req see
system.mem_ctrl.rdQLenPdf::31                       0                       # What read queue length does an incoming req see
system.mem_ctrl.wrQLenPdf::0                        1                       # What write queue length does an incoming req see
system.mem_ctrl.wrQLenPdf::1                        1                       # What write queue length does an incoming req see
system.mem_ctrl.wrQLenPdf::2                        1                       # What write queue length does an incoming req see
system.mem_ctrl.wrQLenPdf::3                        1                       # What write queue length does an incoming req see
system.mem_ctrl.wrQLenPdf::4                        1                       # What write queue length does an incoming req see
system.mem_ctrl.wrQLenPdf::5                        1                       # What write queue length does an incoming req see
system.mem_ctrl.wrQLenPdf::6                        1                       # What write queue length does an incoming req see
system.mem_ctrl.wrQLenPdf::7                        1                       # What write queue length does an incoming req see
system.mem_ctrl.wrQLenPdf::8                        1                       # What write queue length does an incoming req see
system.mem_ctrl.wrQLenPdf::9                        1                       # What write queue length does an incoming req see
system.mem_ctrl.wrQLenPdf::10                       1                       # What write queue length does an incoming req see
system.mem_ctrl.wrQLenPdf::11                       1                       # What write queue length does an incoming req see
system.mem_ctrl.wrQLenPdf::12                       1                       # What write queue length does an incoming req see
system.mem_ctrl.wrQLenPdf::13                       1                       # What write queue length does an incoming req see
system.mem_ctrl.wrQLenPdf::14                       1                       # What write queue length does an incoming req see
system.mem_ctrl.wrQLenPdf::15                      15                       # What write queue length does an incoming req see
system.mem_ctrl.wrQLenPdf::16                      20                       # What write queue length does an incoming req see
system.mem_ctrl.wrQLenPdf::17                      46                       # What write queue length does an incoming req see
system.mem_ctrl.wrQLenPdf::18                      56                       # What write queue length does an incoming req see
system.mem_ctrl.wrQLenPdf::19                      56                       # What write queue length does an incoming req see
system.mem_ctrl.wrQLenPdf::20                      54                       # What write queue length does an incoming req see
system.mem_ctrl.wrQLenPdf::21                      54                       # What write queue length does an incoming req see
system.mem_ctrl.wrQLenPdf::22                      54                       # What write queue length does an incoming req see
system.mem_ctrl.wrQLenPdf::23                      60                       # What write queue length does an incoming req see
system.mem_ctrl.wrQLenPdf::24                      57                       # What write queue length does an incoming req see
system.mem_ctrl.wrQLenPdf::25                      53                       # What write queue length does an incoming req see
system.mem_ctrl.wrQLenPdf::26                      53                       # What write queue length does an incoming req see
system.mem_ctrl.wrQLenPdf::27                      54                       # What write queue length does an incoming req see
system.mem_ctrl.wrQLenPdf::28                      53                       # What write queue length does an incoming req see
system.mem_ctrl.wrQLenPdf::29                      53                       # What write queue length does an incoming req see
system.mem_ctrl.wrQLenPdf::30                      53                       # What write queue length does an incoming req see
system.mem_ctrl.wrQLenPdf::31                      53                       # What write queue length does an incoming req see
system.mem_ctrl.wrQLenPdf::32                      53                       # What write queue length does an incoming req see
system.mem_ctrl.wrQLenPdf::33                       0                       # What write queue length does an incoming req see
system.mem_ctrl.wrQLenPdf::34                       0                       # What write queue length does an incoming req see
system.mem_ctrl.wrQLenPdf::35                       0                       # What write queue length does an incoming req see
system.mem_ctrl.wrQLenPdf::36                       0                       # What write queue length does an incoming req see
system.mem_ctrl.wrQLenPdf::37                       0                       # What write queue length does an incoming req see
system.mem_ctrl.wrQLenPdf::38                       0                       # What write queue length does an incoming req see
system.mem_ctrl.wrQLenPdf::39                       0                       # What write queue length does an incoming req see
system.mem_ctrl.wrQLenPdf::40                       0                       # What write queue length does an incoming req see
system.mem_ctrl.wrQLenPdf::41                       0                       # What write queue length does an incoming req see
system.mem_ctrl.wrQLenPdf::42                       0                       # What write queue length does an incoming req see
system.mem_ctrl.wrQLenPdf::43                       0                       # What write queue length does an incoming req see
system.mem_ctrl.wrQLenPdf::44                       0                       # What write queue length does an incoming req see
system.mem_ctrl.wrQLenPdf::45                       0                       # What write queue length does an incoming req see
system.mem_ctrl.wrQLenPdf::46                       0                       # What write queue length does an incoming req see
system.mem_ctrl.wrQLenPdf::47                       0                       # What write queue length does an incoming req see
system.mem_ctrl.wrQLenPdf::48                       0                       # What write queue length does an incoming req see
system.mem_ctrl.wrQLenPdf::49                       0                       # What write queue length does an incoming req see
system.mem_ctrl.wrQLenPdf::50                       0                       # What write queue length does an incoming req see
system.mem_ctrl.wrQLenPdf::51                       0                       # What write queue length does an incoming req see
system.mem_ctrl.wrQLenPdf::52                       0                       # What write queue length does an incoming req see
system.mem_ctrl.wrQLenPdf::53                       0                       # What write queue length does an incoming req see
system.mem_ctrl.wrQLenPdf::54                       0                       # What write queue length does an incoming req see
system.mem_ctrl.wrQLenPdf::55                       0                       # What write queue length does an incoming req see
system.mem_ctrl.wrQLenPdf::56                       0                       # What write queue length does an incoming req see
system.mem_ctrl.wrQLenPdf::57                       0                       # What write queue length does an incoming req see
system.mem_ctrl.wrQLenPdf::58                       0                       # What write queue length does an incoming req see
system.mem_ctrl.wrQLenPdf::59                       0                       # What write queue length does an incoming req see
system.mem_ctrl.wrQLenPdf::60                       0                       # What write queue length does an incoming req see
system.mem_ctrl.wrQLenPdf::61                       0                       # What write queue length does an incoming req see
system.mem_ctrl.wrQLenPdf::62                       0                       # What write queue length does an incoming req see
system.mem_ctrl.wrQLenPdf::63                       0                       # What write queue length does an incoming req see
system.mem_ctrl.bytesPerActivate::samples          301                       # Bytes accessed per row activation
system.mem_ctrl.bytesPerActivate::mean     379.534884                       # Bytes accessed per row activation
system.mem_ctrl.bytesPerActivate::gmean    243.144671                       # Bytes accessed per row activation
system.mem_ctrl.bytesPerActivate::stdev    334.059869                       # Bytes accessed per row activation
system.mem_ctrl.bytesPerActivate::0-127            76     25.25%     25.25% # Bytes accessed per row activation
system.mem_ctrl.bytesPerActivate::128-255           62     20.60%     45.85% # Bytes accessed per row activation
system.mem_ctrl.bytesPerActivate::256-383           43     14.29%     60.13% # Bytes accessed per row activation
system.mem_ctrl.bytesPerActivate::384-511           31     10.30%     70.43% # Bytes accessed per row activation
system.mem_ctrl.bytesPerActivate::512-639           15      4.98%     75.42% # Bytes accessed per row activation
system.mem_ctrl.bytesPerActivate::640-767           14      4.65%     80.07% # Bytes accessed per row activation
system.mem_ctrl.bytesPerActivate::768-895           13      4.32%     84.39% # Bytes accessed per row activation
system.mem_ctrl.bytesPerActivate::896-1023           10      3.32%     87.71% # Bytes accessed per row activation
system.mem_ctrl.bytesPerActivate::1024-1151           37     12.29%    100.00% # Bytes accessed per row activation
system.mem_ctrl.bytesPerActivate::total           301                       # Bytes accessed per row activation
system.mem_ctrl.rdPerTurnAround::samples           53                       # Reads before turning the bus around for writes
system.mem_ctrl.rdPerTurnAround::mean       16.830189                       # Reads before turning the bus around for writes
system.mem_ctrl.rdPerTurnAround::gmean      16.508437                       # Reads before turning the bus around for writes
system.mem_ctrl.rdPerTurnAround::stdev       4.577268                       # Reads before turning the bus around for writes
system.mem_ctrl.rdPerTurnAround::14-15             20     37.74%     37.74% # Reads before turning the bus around for writes
system.mem_ctrl.rdPerTurnAround::16-17             19     35.85%     73.58% # Reads before turning the bus around for writes
system.mem_ctrl.rdPerTurnAround::18-19             13     24.53%     98.11% # Reads before turning the bus around for writes
system.mem_ctrl.rdPerTurnAround::48-49              1      1.89%    100.00% # Reads before turning the bus around for writes
system.mem_ctrl.rdPerTurnAround::total             53                       # Reads before turning the bus around for writes
system.mem_ctrl.wrPerTurnAround::samples           53                       # Writes before turning the bus around for reads
system.mem_ctrl.wrPerTurnAround::mean       16.773585                       # Writes before turning the bus around for reads
system.mem_ctrl.wrPerTurnAround::gmean      16.730839                       # Writes before turning the bus around for reads
system.mem_ctrl.wrPerTurnAround::stdev       1.250254                       # Writes before turning the bus around for reads
system.mem_ctrl.wrPerTurnAround::16                35     66.04%     66.04% # Writes before turning the bus around for reads
system.mem_ctrl.wrPerTurnAround::17                 4      7.55%     73.58% # Writes before turning the bus around for reads
system.mem_ctrl.wrPerTurnAround::18                 8     15.09%     88.68% # Writes before turning the bus around for reads
system.mem_ctrl.wrPerTurnAround::19                 4      7.55%     96.23% # Writes before turning the bus around for reads
system.mem_ctrl.wrPerTurnAround::20                 1      1.89%     98.11% # Writes before turning the bus around for reads
system.mem_ctrl.wrPerTurnAround::21                 1      1.89%    100.00% # Writes before turning the bus around for reads
system.mem_ctrl.wrPerTurnAround::total             53                       # Writes before turning the bus around for reads
system.mem_ctrl.totQLat                      15753750                       # Total ticks spent queuing
system.mem_ctrl.totMemAccLat                 32591250                       # Total ticks spent from burst creation until serviced by the DRAM
system.mem_ctrl.totBusLat                     4490000                       # Total ticks spent in databus transfers
system.mem_ctrl.avgQLat                      17543.15                       # Average queueing delay per DRAM burst
system.mem_ctrl.avgBusLat                     5000.00                       # Average bus latency per DRAM burst
system.mem_ctrl.avgMemAccLat                 36293.15                       # Average memory access latency per DRAM burst
system.mem_ctrl.avgRdBW                        301.94                       # Average DRAM read bandwidth in MiByte/s
system.mem_ctrl.avgWrBW                        298.92                       # Average achieved write bandwidth in MiByte/s
system.mem_ctrl.avgRdBWSys                    1989.20                       # Average system read bandwidth in MiByte/s
system.mem_ctrl.avgWrBWSys                    1983.82                       # Average system write bandwidth in MiByte/s
system.mem_ctrl.peakBW                       12800.00                       # Theoretical peak bandwidth in MiByte/s
system.mem_ctrl.busUtil                          4.69                       # Data bus utilization in percentage
system.mem_ctrl.busUtilRead                      2.36                       # Data bus utilization in percentage for reads
system.mem_ctrl.busUtilWrite                     2.34                       # Data bus utilization in percentage for writes
system.mem_ctrl.avgRdQLen                        1.00                       # Average read queue length when enqueuing
system.mem_ctrl.avgWrQLen                       25.77                       # Average write queue length when enqueuing
system.mem_ctrl.readRowHits                       661                       # Number of row buffer hits during reads
system.mem_ctrl.writeRowHits                      823                       # Number of row buffer hits during writes
system.mem_ctrl.readRowHitRate                  73.61                       # Row buffer hit rate for reads
system.mem_ctrl.writeRowHitRate                 90.24                       # Row buffer hit rate for writes
system.mem_ctrl.avgGap                       16108.33                       # Average gap between requests
system.mem_ctrl.pageHitRate                     81.99                       # Row buffer hit rate, read and write combined
system.mem_ctrl_0.actEnergy                   1627920                       # Energy for activate commands per rank (pJ)
system.mem_ctrl_0.preEnergy                    861465                       # Energy for precharge commands per rank (pJ)
system.mem_ctrl_0.readEnergy                  4491060                       # Energy for read commands per rank (pJ)
system.mem_ctrl_0.writeEnergy                 3252060                       # Energy for write commands per rank (pJ)
system.mem_ctrl_0.refreshEnergy          13522080.000000                       # Energy for refresh commands per rank (pJ)
system.mem_ctrl_0.actBackEnergy              19418190                       # Energy for active background per rank (pJ)
system.mem_ctrl_0.preBackEnergy                380160                       # Energy for precharge background per rank (pJ)
system.mem_ctrl_0.actPowerDownEnergy         47559090                       # Energy for active power-down per rank (pJ)
system.mem_ctrl_0.prePowerDownEnergy          6383520                       # Energy for precharge power-down per rank (pJ)
system.mem_ctrl_0.selfRefreshEnergy           6755340                       # Energy for self refresh per rank (pJ)
system.mem_ctrl_0.totalEnergy               104250885                       # Total energy per rank (pJ)
system.mem_ctrl_0.averagePower             547.708758                       # Core power per rank (mW)
system.mem_ctrl_0.totalIdleTime             146598250                       # Total Idle time Per DRAM Rank
system.mem_ctrl_0.memoryStateTime::IDLE        364750                       # Time in different power states
system.mem_ctrl_0.memoryStateTime::REF        5726000                       # Time in different power states
system.mem_ctrl_0.memoryStateTime::SREF      25845500                       # Time in different power states
system.mem_ctrl_0.memoryStateTime::PRE_PDN     16622500                       # Time in different power states
system.mem_ctrl_0.memoryStateTime::ACT       37517250                       # Time in different power states
system.mem_ctrl_0.memoryStateTime::ACT_PDN    104264000                       # Time in different power states
system.mem_ctrl_1.actEnergy                    535500                       # Energy for activate commands per rank (pJ)
system.mem_ctrl_1.preEnergy                    280830                       # Energy for precharge commands per rank (pJ)
system.mem_ctrl_1.readEnergy                  1920660                       # Energy for read commands per rank (pJ)
system.mem_ctrl_1.writeEnergy                 1388520                       # Energy for write commands per rank (pJ)
system.mem_ctrl_1.refreshEnergy          13522080.000000                       # Energy for refresh commands per rank (pJ)
system.mem_ctrl_1.actBackEnergy              12429420                       # Energy for active background per rank (pJ)
system.mem_ctrl_1.preBackEnergy                624480                       # Energy for precharge background per rank (pJ)
system.mem_ctrl_1.actPowerDownEnergy         43050960                       # Energy for active power-down per rank (pJ)
system.mem_ctrl_1.prePowerDownEnergy         13368000                       # Energy for precharge power-down per rank (pJ)
system.mem_ctrl_1.selfRefreshEnergy           8840580                       # Energy for self refresh per rank (pJ)
system.mem_ctrl_1.totalEnergy                95961030                       # Total energy per rank (pJ)
system.mem_ctrl_1.averagePower             504.155879                       # Core power per rank (mW)
system.mem_ctrl_1.totalIdleTime             160526250                       # Total Idle time Per DRAM Rank
system.mem_ctrl_1.memoryStateTime::IDLE       1050000                       # Time in different power states
system.mem_ctrl_1.memoryStateTime::REF        5732000                       # Time in different power states
system.mem_ctrl_1.memoryStateTime::SREF      32232750                       # Time in different power states
system.mem_ctrl_1.memoryStateTime::PRE_PDN     34810000                       # Time in different power states
system.mem_ctrl_1.memoryStateTime::ACT       22110500                       # Time in different power states
system.mem_ctrl_1.memoryStateTime::ACT_PDN     94404750                       # Time in different power states
system.pwrStateResidencyTicks::UNDEFINED    190340000                       # Cumulative time (in ticks) in various power states
system.cache.pwrStateResidencyTicks::UNDEFINED    190340000                       # Cumulative time (in ticks) in various power states
system.cache.hits                                4386                       # Number of hits
system.cache.misses                              5916                       # Number of misses
system.cache.missLatency::samples                5916                       # Ticks for misses to the cache
system.cache.missLatency::mean           30432.386748                       # Ticks for misses to the cache
system.cache.missLatency::gmean          27387.865129                       # Ticks for misses to the cache
system.cache.missLatency::stdev          22393.008338                       # Ticks for misses to the cache
system.cache.missLatency::0-65535                5663     95.72%     95.72% # Ticks for misses to the cache
system.cache.missLatency::65536-131071            214      3.62%     99.34% # Ticks for misses to the cache
system.cache.missLatency::131072-196607            27      0.46%     99.80% # Ticks for misses to the cache
system.cache.missLatency::196608-262143             0      0.00%     99.80% # Ticks for misses to the cache
system.cache.missLatency::262144-327679             6      0.10%     99.90% # Ticks for misses to the cache
system.cache.missLatency::327680-393215             4      0.07%     99.97% # Ticks for misses to the cache
system.cache.missLatency::393216-458751             1      0.02%     99.98% # Ticks for misses to the cache
system.cache.missLatency::458752-524287             0      0.00%     99.98% # Ticks for misses to the cache
system.cache.missLatency::524288-589823             0      0.00%     99.98% # Ticks for misses to the cache
system.cache.missLatency::589824-655359             1      0.02%    100.00% # Ticks for misses to the cache
system.cache.missLatency::655360-720895             0      0.00%    100.00% # Ticks for misses to the cache
system.cache.missLatency::720896-786431             0      0.00%    100.00% # Ticks for misses to the cache
system.cache.missLatency::786432-851967             0      0.00%    100.00% # Ticks for misses to the cache
system.cache.missLatency::851968-917503             0      0.00%    100.00% # Ticks for misses to the cache
system.cache.missLatency::917504-983039             0      0.00%    100.00% # Ticks for misses to the cache
system.cache.missLatency::983040-1.04858e+06            0      0.00%    100.00% # Ticks for misses to the cache
system.cache.missLatency::total                  5916                       # Ticks for misses to the cache
system.cache.hitRatio                        0.425743                       # The ratio of hits to the total accesses to the cache
system.cpu.dtb.fetch_hits                           0                       # ITB hits
system.cpu.dtb.fetch_misses                         0                       # ITB misses
system.cpu.dtb.fetch_acv                            0                       # ITB acv
system.cpu.dtb.fetch_accesses                       0                       # ITB accesses
system.cpu.dtb.read_hits                         1522                       # DTB read hits
system.cpu.dtb.read_misses                         10                       # DTB read misses
system.cpu.dtb.read_acv                             0                       # DTB read access violations
system.cpu.dtb.read_accesses                     1532                       # DTB read accesses
system.cpu.dtb.write_hits                        1036                       # DTB write hits
system.cpu.dtb.write_misses                         2                       # DTB write misses
system.cpu.dtb.write_acv                            0                       # DTB write access violations
system.cpu.dtb.write_accesses                    1038                       # DTB write accesses
system.cpu.dtb.data_hits                         2558                       # DTB hits
system.cpu.dtb.data_misses                         12                       # DTB misses
system.cpu.dtb.data_acv                             0                       # DTB access violations
system.cpu.dtb.data_accesses                     2570                       # DTB accesses
system.cpu.itb.fetch_hits                        7745                       # ITB hits
system.cpu.itb.fetch_misses                        18                       # ITB misses
system.cpu.itb.fetch_acv                            0                       # ITB acv
system.cpu.itb.fetch_accesses                    7763                       # ITB accesses
system.cpu.itb.read_hits                            0                       # DTB read hits
system.cpu.itb.read_misses                          0                       # DTB read misses
system.cpu.itb.read_acv                             0                       # DTB read access violations
system.cpu.itb.read_accesses                        0                       # DTB read accesses
system.cpu.itb.write_hits                           0                       # DTB write hits
system.cpu.itb.write_misses                         0                       # DTB write misses
system.cpu.itb.write_acv                            0                       # DTB write access violations
system.cpu.itb.write_accesses                       0                       # DTB write accesses
system.cpu.itb.data_hits                            0                       # DTB hits
system.cpu.itb.data_misses                          0                       # DTB misses
system.cpu.itb.data_acv                             0                       # DTB access violations
system.cpu.itb.data_accesses                        0                       # DTB accesses
system.cpu.workload.numSyscalls                    10                       # Number of system calls
system.cpu.pwrStateResidencyTicks::ON       190340000                       # Cumulative time (in ticks) in various power states
system.cpu.numCycles                           190340                       # number of cpu cycles simulated
system.cpu.numWorkItemsStarted                      0                       # number of work items this cpu started
system.cpu.numWorkItemsCompleted                    0                       # number of work items this cpu completed
system.cpu.committedInsts                        7732                       # Number of instructions committed
system.cpu.committedOps                          7732                       # Number of ops (including micro ops) committed
system.cpu.num_int_alu_accesses                  7647                       # Number of integer alu accesses
system.cpu.num_fp_alu_accesses                     17                       # Number of float alu accesses
system.cpu.num_vec_alu_accesses                     0                       # Number of vector alu accesses
system.cpu.num_func_calls                         259                       # number of times a function call or return occured
system.cpu.num_conditional_control_insts          902                       # number of instructions that are conditional controls
system.cpu.num_int_insts                         7647                       # number of integer instructions
system.cpu.num_fp_insts                            17                       # number of float instructions
system.cpu.num_vec_insts                            0                       # number of vector instructions
system.cpu.num_int_register_reads               10167                       # number of times the integer registers were read
system.cpu.num_int_register_writes               5558                       # number of times the integer registers were written
system.cpu.num_fp_register_reads                   14                       # number of times the floating registers were read
system.cpu.num_fp_register_writes                   5                       # number of times the floating registers were written
system.cpu.num_vec_register_reads                   0                       # number of times the vector registers were read
system.cpu.num_vec_register_writes                  0                       # number of times the vector registers were written
system.cpu.num_mem_refs                          2570                       # number of memory refs
system.cpu.num_load_insts                        1532                       # Number of load instructions
system.cpu.num_store_insts                       1038                       # Number of store instructions
system.cpu.num_idle_cycles                          0                       # Number of idle cycles
system.cpu.num_busy_cycles                     190340                       # Number of busy cycles
system.cpu.not_idle_fraction                        1                       # Percentage of non-idle cycles
system.cpu.idle_fraction                            0                       # Percentage of idle cycles
system.cpu.Branches                              1236                       # Number of branches fetched
system.cpu.op_class::No_OpClass                    22      0.28%      0.28% # Class of executed instruction
system.cpu.op_class::IntAlu                      5147     66.46%     66.75% # Class of executed instruction
system.cpu.op_class::IntMult                        1      0.01%     66.76% # Class of executed instruction
system.cpu.op_class::IntDiv                         0      0.00%     66.76% # Class of executed instruction
system.cpu.op_class::FloatAdd                       3      0.04%     66.80% # Class of executed instruction
system.cpu.op_class::FloatCmp                       1      0.01%     66.81% # Class of executed instruction
system.cpu.op_class::FloatCvt                       0      0.00%     66.81% # Class of executed instruction
system.cpu.op_class::FloatMult                      0      0.00%     66.81% # Class of executed instruction
system.cpu.op_class::FloatMultAcc                   0      0.00%     66.81% # Class of executed instruction
system.cpu.op_class::FloatDiv                       0      0.00%     66.81% # Class of executed instruction
system.cpu.op_class::FloatMisc                      0      0.00%     66.81% # Class of executed instruction
system.cpu.op_class::FloatSqrt                      0      0.00%     66.81% # Class of executed instruction
system.cpu.op_class::SimdAdd                        0      0.00%     66.81% # Class of executed instruction
system.cpu.op_class::SimdAddAcc                     0      0.00%     66.81% # Class of executed instruction
system.cpu.op_class::SimdAlu                        0      0.00%     66.81% # Class of executed instruction
system.cpu.op_class::SimdCmp                        0      0.00%     66.81% # Class of executed instruction
system.cpu.op_class::SimdCvt                        0      0.00%     66.81% # Class of executed instruction
system.cpu.op_class::SimdMisc                       0      0.00%     66.81% # Class of executed instruction
system.cpu.op_class::SimdMult                       0      0.00%     66.81% # Class of executed instruction
system.cpu.op_class::SimdMultAcc                    0      0.00%     66.81% # Class of executed instruction
system.cpu.op_class::SimdShift                      0      0.00%     66.81% # Class of executed instruction
system.cpu.op_class::SimdShiftAcc                   0      0.00%     66.81% # Class of executed instruction
system.cpu.op_class::SimdSqrt                       0      0.00%     66.81% # Class of executed instruction
system.cpu.op_class::SimdFloatAdd                   0      0.00%     66.81% # Class of executed instruction
system.cpu.op_class::SimdFloatAlu                   0      0.00%     66.81% # Class of executed instruction
system.cpu.op_class::SimdFloatCmp                   0      0.00%     66.81% # Class of executed instruction
system.cpu.op_class::SimdFloatCvt                   0      0.00%     66.81% # Class of executed instruction
system.cpu.op_class::SimdFloatDiv                   0      0.00%     66.81% # Class of executed instruction
system.cpu.op_class::SimdFloatMisc                  0      0.00%     66.81% # Class of executed instruction
system.cpu.op_class::SimdFloatMult                  0      0.00%     66.81% # Class of executed instruction
system.cpu.op_class::SimdFloatMultAcc               0      0.00%     66.81% # Class of executed instruction
system.cpu.op_class::SimdFloatSqrt                  0      0.00%     66.81% # Class of executed instruction
system.cpu.op_class::MemRead                     1529     19.74%     86.56% # Class of executed instruction
system.cpu.op_class::MemWrite                    1028     13.27%     99.83% # Class of executed instruction
system.cpu.op_class::FloatMemRead                   3      0.04%     99.87% # Class of executed instruction
system.cpu.op_class::FloatMemWrite                 10      0.13%    100.00% # Class of executed instruction
system.cpu.op_class::IprAccess                      0      0.00%    100.00% # Class of executed instruction
system.cpu.op_class::InstPrefetch                   0      0.00%    100.00% # Class of executed instruction
system.cpu.op_class::total                       7744                       # Class of executed instruction
system.membus.snoop_filter.tot_requests             0                       # Total number of requests made to the snoop filter.
system.membus.snoop_filter.hit_single_requests            0                       # Number of requests hitting in the snoop filter with a single holder of the requested data.
system.membus.snoop_filter.hit_multi_requests            0                       # Number of requests hitting in the snoop filter with multiple (>1) holders of the requested data.
system.membus.snoop_filter.tot_snoops               0                       # Total number of snoops made to the snoop filter.
system.membus.snoop_filter.hit_single_snoops            0                       # Number of snoops hitting in the snoop filter with a single holder of the requested data.
system.membus.snoop_filter.hit_multi_snoops            0                       # Number of snoops hitting in the snoop filter with multiple (>1) holders of the requested data.
system.membus.pwrStateResidencyTicks::UNDEFINED    190340000                       # Cumulative time (in ticks) in various power states
system.membus.trans_dist::ReadReq                5916                       # Transaction distribution
system.membus.trans_dist::ReadResp               5916                       # Transaction distribution
system.membus.trans_dist::WritebackDirty         5900                       # Transaction distribution
system.membus.pkt_count_system.cache.mem_side::system.mem_ctrl.port        17732                       # Packet count per connected master and slave (bytes)
system.membus.pkt_count::total                  17732                       # Packet count per connected master and slave (bytes)
system.membus.pkt_size_system.cache.mem_side::system.mem_ctrl.port       756224                       # Cumulative packet size per connected master and slave (bytes)
system.membus.pkt_size::total                  756224                       # Cumulative packet size per connected master and slave (bytes)
system.membus.snoops                                0                       # Total snoops (count)
system.membus.snoopTraffic                          0                       # Total snoop traffic (bytes)
system.membus.snoop_fanout::samples              5916                       # Request fanout histogram
system.membus.snoop_fanout::mean                    0                       # Request fanout histogram
system.membus.snoop_fanout::stdev                   0                       # Request fanout histogram
system.membus.snoop_fanout::underflows              0      0.00%      0.00% # Request fanout histogram
system.membus.snoop_fanout::0                    5916    100.00%    100.00% # Request fanout histogram
system.membus.snoop_fanout::overflows               0      0.00%    100.00% # Request fanout histogram
system.membus.snoop_fanout::min_value               0                       # Request fanout histogram
system.membus.snoop_fanout::max_value               0                       # Request fanout histogram
system.membus.snoop_fanout::total                5916                       # Request fanout histogram
system.membus.reqLayer0.occupancy            35416000                       # Layer occupancy (ticks)
system.membus.reqLayer0.utilization              18.6                       # Layer utilization (%)
system.membus.respLayer0.occupancy           29877750                       # Layer occupancy (ticks)
system.membus.respLayer0.utilization             15.7                       # Layer utilization (%)

---------- End Simulation Statistics   ----------
