
---------- Begin Simulation Statistics ----------
sim_seconds                                  0.000091                       # Number of seconds simulated
sim_ticks                                    91463000                       # Number of ticks simulated
final_tick                                   91463000                       # Number of ticks from beginning of simulation (restored from checkpoints and never reset)
sim_freq                                 1000000000000                       # Frequency of simulated ticks
host_inst_rate                                 442884                       # Simulator instruction rate (inst/s)
host_op_rate                                   442660                       # Simulator op (including micro ops) rate (op/s)
host_tick_rate                             4632914598                       # Simulator tick rate (ticks/s)
host_mem_usage                                6707348                       # Number of bytes of host memory used
host_seconds                                     0.02                       # Real time elapsed on the host
sim_insts                                        8735                       # Number of instructions simulated
sim_ops                                          8735                       # Number of ops (including micro ops) simulated
system.clk_domain.voltage_domain.voltage            1                       # Voltage in Volts
system.clk_domain.clock                          1000                       # Clock period in ticks
system.mem_ctrl.pwrStateResidencyTicks::UNDEFINED     91463000                       # Cumulative time (in ticks) in various power states
system.mem_ctrl.bytes_read::cpu.inst            46144                       # Number of bytes read from this memory
system.mem_ctrl.bytes_read::cpu.data            50048                       # Number of bytes read from this memory
system.mem_ctrl.bytes_read::total               96192                       # Number of bytes read from this memory
system.mem_ctrl.bytes_inst_read::cpu.inst        46144                       # Number of instructions bytes read from this memory
system.mem_ctrl.bytes_inst_read::total          46144                       # Number of instructions bytes read from this memory
system.mem_ctrl.bytes_written::writebacks        95168                       # Number of bytes written to this memory
system.mem_ctrl.bytes_written::total            95168                       # Number of bytes written to this memory
system.mem_ctrl.num_reads::cpu.inst               721                       # Number of read requests responded to by this memory
system.mem_ctrl.num_reads::cpu.data               782                       # Number of read requests responded to by this memory
system.mem_ctrl.num_reads::total                 1503                       # Number of read requests responded to by this memory
system.mem_ctrl.num_writes::writebacks           1487                       # Number of write requests responded to by this memory
system.mem_ctrl.num_writes::total                1487                       # Number of write requests responded to by this memory
system.mem_ctrl.bw_read::cpu.inst           504510020                       # Total read bandwidth from this memory (bytes/s)
system.mem_ctrl.bw_read::cpu.data           547193947                       # Total read bandwidth from this memory (bytes/s)
system.mem_ctrl.bw_read::total             1051703968                       # Total read bandwidth from this memory (bytes/s)
system.mem_ctrl.bw_inst_read::cpu.inst      504510020                       # Instruction read bandwidth from this memory (bytes/s)
system.mem_ctrl.bw_inst_read::total         504510020                       # Instruction read bandwidth from this memory (bytes/s)
system.mem_ctrl.bw_write::writebacks       1040508184                       # Write bandwidth from this memory (bytes/s)
system.mem_ctrl.bw_write::total            1040508184                       # Write bandwidth from this memory (bytes/s)
system.mem_ctrl.bw_total::writebacks       1040508184                       # Total bandwidth to/from this memory (bytes/s)
system.mem_ctrl.bw_total::cpu.inst          504510020                       # Total bandwidth to/from this memory (bytes/s)
system.mem_ctrl.bw_total::cpu.data          547193947                       # Total bandwidth to/from this memory (bytes/s)
system.mem_ctrl.bw_total::total            2092212151                       # Total bandwidth to/from this memory (bytes/s)
system.mem_ctrl.readReqs                         1503                       # Number of read requests accepted
system.mem_ctrl.writeReqs                        1487                       # Number of write requests accepted
system.mem_ctrl.readBursts                       1503                       # Number of DRAM read bursts, including those serviced by the write queue
system.mem_ctrl.writeBursts                      1487                       # Number of DRAM write bursts, including those merged in the write queue
system.mem_ctrl.bytesReadDRAM                   64832                       # Total number of bytes read from DRAM
system.mem_ctrl.bytesReadWrQ                    31360                       # Total number of bytes read from write queue
system.mem_ctrl.bytesWritten                    73856                       # Total number of bytes written to DRAM
system.mem_ctrl.bytesReadSys                    96192                       # Total read bytes from the system interface side
system.mem_ctrl.bytesWrittenSys                 95168                       # Total written bytes from the system interface side
system.mem_ctrl.servicedByWrQ                     490                       # Number of DRAM read bursts serviced by the write queue
system.mem_ctrl.mergedWrBursts                    311                       # Number of DRAM write bursts merged with an existing one
system.mem_ctrl.neitherReadNorWriteReqs             0                       # Number of requests that are neither read nor write
system.mem_ctrl.perBankRdBursts::0                 87                       # Per bank write bursts
system.mem_ctrl.perBankRdBursts::1                 22                       # Per bank write bursts
system.mem_ctrl.perBankRdBursts::2                207                       # Per bank write bursts
system.mem_ctrl.perBankRdBursts::3                153                       # Per bank write bursts
system.mem_ctrl.perBankRdBursts::4                100                       # Per bank write bursts
system.mem_ctrl.perBankRdBursts::5                 42                       # Per bank write bursts
system.mem_ctrl.perBankRdBursts::6                 25                       # Per bank write bursts
system.mem_ctrl.perBankRdBursts::7                 50                       # Per bank write bursts
system.mem_ctrl.perBankRdBursts::8                  3                       # Per bank write bursts
system.mem_ctrl.perBankRdBursts::9                118                       # Per bank write bursts
system.mem_ctrl.perBankRdBursts::10                 9                       # Per bank write bursts
system.mem_ctrl.perBankRdBursts::11                27                       # Per bank write bursts
system.mem_ctrl.perBankRdBursts::12                 5                       # Per bank write bursts
system.mem_ctrl.perBankRdBursts::13                35                       # Per bank write bursts
system.mem_ctrl.perBankRdBursts::14                89                       # Per bank write bursts
system.mem_ctrl.perBankRdBursts::15                41                       # Per bank write bursts
system.mem_ctrl.perBankWrBursts::0                 95                       # Per bank write bursts
system.mem_ctrl.perBankWrBursts::1                 26                       # Per bank write bursts
system.mem_ctrl.perBankWrBursts::2                230                       # Per bank write bursts
system.mem_ctrl.perBankWrBursts::3                170                       # Per bank write bursts
system.mem_ctrl.perBankWrBursts::4                105                       # Per bank write bursts
system.mem_ctrl.perBankWrBursts::5                 52                       # Per bank write bursts
system.mem_ctrl.perBankWrBursts::6                 25                       # Per bank write bursts
system.mem_ctrl.perBankWrBursts::7                 57                       # Per bank write bursts
system.mem_ctrl.perBankWrBursts::8                  3                       # Per bank write bursts
system.mem_ctrl.perBankWrBursts::9                159                       # Per bank write bursts
system.mem_ctrl.perBankWrBursts::10                14                       # Per bank write bursts
system.mem_ctrl.perBankWrBursts::11                30                       # Per bank write bursts
system.mem_ctrl.perBankWrBursts::12                 6                       # Per bank write bursts
system.mem_ctrl.perBankWrBursts::13                35                       # Per bank write bursts
system.mem_ctrl.perBankWrBursts::14                95                       # Per bank write bursts
system.mem_ctrl.perBankWrBursts::15                52                       # Per bank write bursts
system.mem_ctrl.numRdRetry                          0                       # Number of times read queue was full causing retry
system.mem_ctrl.numWrRetry                          0                       # Number of times write queue was full causing retry
system.mem_ctrl.totGap                       91450000                       # Total gap between requests
system.mem_ctrl.readPktSize::0                      0                       # Read request sizes (log2)
system.mem_ctrl.readPktSize::1                      0                       # Read request sizes (log2)
system.mem_ctrl.readPktSize::2                      0                       # Read request sizes (log2)
system.mem_ctrl.readPktSize::3                      0                       # Read request sizes (log2)
system.mem_ctrl.readPktSize::4                      0                       # Read request sizes (log2)
system.mem_ctrl.readPktSize::5                      0                       # Read request sizes (log2)
system.mem_ctrl.readPktSize::6                   1503                       # Read request sizes (log2)
system.mem_ctrl.writePktSize::0                     0                       # Write request sizes (log2)
system.mem_ctrl.writePktSize::1                     0                       # Write request sizes (log2)
system.mem_ctrl.writePktSize::2                     0                       # Write request sizes (log2)
system.mem_ctrl.writePktSize::3                     0                       # Write request sizes (log2)
system.mem_ctrl.writePktSize::4                     0                       # Write request sizes (log2)
system.mem_ctrl.writePktSize::5                     0                       # Write request sizes (log2)
system.mem_ctrl.writePktSize::6                  1487                       # Write request sizes (log2)
system.mem_ctrl.rdQLenPdf::0                     1013                       # What read queue length does an incoming req see
system.mem_ctrl.rdQLenPdf::1                        0                       # What read queue length does an incoming req see
system.mem_ctrl.rdQLenPdf::2                        0                       # What read queue length does an incoming req see
system.mem_ctrl.rdQLenPdf::3                        0                       # What read queue length does an incoming req see
system.mem_ctrl.rdQLenPdf::4                        0                       # What read queue length does an incoming req see
system.mem_ctrl.rdQLenPdf::5                        0                       # What read queue length does an incoming req see
system.mem_ctrl.rdQLenPdf::6                        0                       # What read queue length does an incoming req see
system.mem_ctrl.rdQLenPdf::7                        0                       # What read queue length does an incoming req see
system.mem_ctrl.rdQLenPdf::8                        0                       # What read queue length does an incoming req see
system.mem_ctrl.rdQLenPdf::9                        0                       # What read queue length does an incoming req see
system.mem_ctrl.rdQLenPdf::10                       0                       # What read queue length does an incoming req see
system.mem_ctrl.rdQLenPdf::11                       0                       # What read queue length does an incoming req see
system.mem_ctrl.rdQLenPdf::12                       0                       # What read queue length does an incoming req see
system.mem_ctrl.rdQLenPdf::13                       0                       # What read queue length does an incoming req see
system.mem_ctrl.rdQLenPdf::14                       0                       # What read queue length does an incoming req see
system.mem_ctrl.rdQLenPdf::15                       0                       # What read queue length does an incoming req see
system.mem_ctrl.rdQLenPdf::16                       0                       # What read queue length does an incoming req see
system.mem_ctrl.rdQLenPdf::17                       0                       # What read queue length does an incoming req see
system.mem_ctrl.rdQLenPdf::18                       0                       # What read queue length does an incoming req see
system.mem_ctrl.rdQLenPdf::19                       0                       # What read queue length does an incoming req see
system.mem_ctrl.rdQLenPdf::20                       0                       # What read queue length does an incoming req see
system.mem_ctrl.rdQLenPdf::21                       0                       # What read queue length does an incoming req see
system.mem_ctrl.rdQLenPdf::22                       0                       # What read queue length does an incoming req see
system.mem_ctrl.rdQLenPdf::23                       0                       # What read queue length does an incoming req see
system.mem_ctrl.rdQLenPdf::24                       0                       # What read queue length does an incoming req see
system.mem_ctrl.rdQLenPdf::25                       0                       # What read queue length does an incoming req see
system.mem_ctrl.rdQLenPdf::26                       0                       # What read queue length does an incoming req see
system.mem_ctrl.rdQLenPdf::27                       0                       # What read queue length does an incoming req see
system.mem_ctrl.rdQLenPdf::28                       0                       # What read queue length does an incoming req see
system.mem_ctrl.rdQLenPdf::29                       0                       # What read queue length does an incoming req see
system.mem_ctrl.rdQLenPdf::30                       0                       # What read queue length does an incoming req see
system.mem_ctrl.rdQLenPdf::31                       0                       # What read queue length does an incoming req see
system.mem_ctrl.wrQLenPdf::0                        1                       # What write queue length does an incoming req see
system.mem_ctrl.wrQLenPdf::1                        1                       # What write queue length does an incoming req see
system.mem_ctrl.wrQLenPdf::2                        1                       # What write queue length does an incoming req see
system.mem_ctrl.wrQLenPdf::3                        1                       # What write queue length does an incoming req see
system.mem_ctrl.wrQLenPdf::4                        1                       # What write queue length does an incoming req see
system.mem_ctrl.wrQLenPdf::5                        1                       # What write queue length does an incoming req see
system.mem_ctrl.wrQLenPdf::6                        1                       # What write queue length does an incoming req see
system.mem_ctrl.wrQLenPdf::7                        1                       # What write queue length does an incoming req see
system.mem_ctrl.wrQLenPdf::8                        1                       # What write queue length does an incoming req see
system.mem_ctrl.wrQLenPdf::9                        1                       # What write queue length does an incoming req see
system.mem_ctrl.wrQLenPdf::10                       1                       # What write queue length does an incoming req see
system.mem_ctrl.wrQLenPdf::11                       1                       # What write queue length does an incoming req see
system.mem_ctrl.wrQLenPdf::12                       1                       # What write queue length does an incoming req see
system.mem_ctrl.wrQLenPdf::13                       1                       # What write queue length does an incoming req see
system.mem_ctrl.wrQLenPdf::14                       1                       # What write queue length does an incoming req see
system.mem_ctrl.wrQLenPdf::15                       4                       # What write queue length does an incoming req see
system.mem_ctrl.wrQLenPdf::16                       5                       # What write queue length does an incoming req see
system.mem_ctrl.wrQLenPdf::17                      64                       # What write queue length does an incoming req see
system.mem_ctrl.wrQLenPdf::18                      72                       # What write queue length does an incoming req see
system.mem_ctrl.wrQLenPdf::19                      76                       # What write queue length does an incoming req see
system.mem_ctrl.wrQLenPdf::20                      72                       # What write queue length does an incoming req see
system.mem_ctrl.wrQLenPdf::21                      73                       # What write queue length does an incoming req see
system.mem_ctrl.wrQLenPdf::22                      73                       # What write queue length does an incoming req see
system.mem_ctrl.wrQLenPdf::23                      81                       # What write queue length does an incoming req see
system.mem_ctrl.wrQLenPdf::24                      73                       # What write queue length does an incoming req see
system.mem_ctrl.wrQLenPdf::25                      71                       # What write queue length does an incoming req see
system.mem_ctrl.wrQLenPdf::26                      71                       # What write queue length does an incoming req see
system.mem_ctrl.wrQLenPdf::27                      71                       # What write queue length does an incoming req see
system.mem_ctrl.wrQLenPdf::28                      71                       # What write queue length does an incoming req see
system.mem_ctrl.wrQLenPdf::29                      71                       # What write queue length does an incoming req see
system.mem_ctrl.wrQLenPdf::30                      71                       # What write queue length does an incoming req see
system.mem_ctrl.wrQLenPdf::31                      71                       # What write queue length does an incoming req see
system.mem_ctrl.wrQLenPdf::32                      71                       # What write queue length does an incoming req see
system.mem_ctrl.wrQLenPdf::33                       0                       # What write queue length does an incoming req see
system.mem_ctrl.wrQLenPdf::34                       0                       # What write queue length does an incoming req see
system.mem_ctrl.wrQLenPdf::35                       0                       # What write queue length does an incoming req see
system.mem_ctrl.wrQLenPdf::36                       0                       # What write queue length does an incoming req see
system.mem_ctrl.wrQLenPdf::37                       0                       # What write queue length does an incoming req see
system.mem_ctrl.wrQLenPdf::38                       0                       # What write queue length does an incoming req see
system.mem_ctrl.wrQLenPdf::39                       0                       # What write queue length does an incoming req see
system.mem_ctrl.wrQLenPdf::40                       0                       # What write queue length does an incoming req see
system.mem_ctrl.wrQLenPdf::41                       0                       # What write queue length does an incoming req see
system.mem_ctrl.wrQLenPdf::42                       0                       # What write queue length does an incoming req see
system.mem_ctrl.wrQLenPdf::43                       0                       # What write queue length does an incoming req see
system.mem_ctrl.wrQLenPdf::44                       0                       # What write queue length does an incoming req see
system.mem_ctrl.wrQLenPdf::45                       0                       # What write queue length does an incoming req see
system.mem_ctrl.wrQLenPdf::46                       0                       # What write queue length does an incoming req see
system.mem_ctrl.wrQLenPdf::47                       0                       # What write queue length does an incoming req see
system.mem_ctrl.wrQLenPdf::48                       0                       # What write queue length does an incoming req see
system.mem_ctrl.wrQLenPdf::49                       0                       # What write queue length does an incoming req see
system.mem_ctrl.wrQLenPdf::50                       0                       # What write queue length does an incoming req see
system.mem_ctrl.wrQLenPdf::51                       0                       # What write queue length does an incoming req see
system.mem_ctrl.wrQLenPdf::52                       0                       # What write queue length does an incoming req see
system.mem_ctrl.wrQLenPdf::53                       0                       # What write queue length does an incoming req see
system.mem_ctrl.wrQLenPdf::54                       0                       # What write queue length does an incoming req see
system.mem_ctrl.wrQLenPdf::55                       0                       # What write queue length does an incoming req see
system.mem_ctrl.wrQLenPdf::56                       0                       # What write queue length does an incoming req see
system.mem_ctrl.wrQLenPdf::57                       0                       # What write queue length does an incoming req see
system.mem_ctrl.wrQLenPdf::58                       0                       # What write queue length does an incoming req see
system.mem_ctrl.wrQLenPdf::59                       0                       # What write queue length does an incoming req see
system.mem_ctrl.wrQLenPdf::60                       0                       # What write queue length does an incoming req see
system.mem_ctrl.wrQLenPdf::61                       0                       # What write queue length does an incoming req see
system.mem_ctrl.wrQLenPdf::62                       0                       # What write queue length does an incoming req see
system.mem_ctrl.wrQLenPdf::63                       0                       # What write queue length does an incoming req see
system.mem_ctrl.bytesPerActivate::samples          313                       # Bytes accessed per row activation
system.mem_ctrl.bytesPerActivate::mean     432.869010                       # Bytes accessed per row activation
system.mem_ctrl.bytesPerActivate::gmean    270.383039                       # Bytes accessed per row activation
system.mem_ctrl.bytesPerActivate::stdev    368.730687                       # Bytes accessed per row activation
system.mem_ctrl.bytesPerActivate::0-127            72     23.00%     23.00% # Bytes accessed per row activation
system.mem_ctrl.bytesPerActivate::128-255           67     21.41%     44.41% # Bytes accessed per row activation
system.mem_ctrl.bytesPerActivate::256-383           33     10.54%     54.95% # Bytes accessed per row activation
system.mem_ctrl.bytesPerActivate::384-511           25      7.99%     62.94% # Bytes accessed per row activation
system.mem_ctrl.bytesPerActivate::512-639           17      5.43%     68.37% # Bytes accessed per row activation
system.mem_ctrl.bytesPerActivate::640-767           13      4.15%     72.52% # Bytes accessed per row activation
system.mem_ctrl.bytesPerActivate::768-895           13      4.15%     76.68% # Bytes accessed per row activation
system.mem_ctrl.bytesPerActivate::896-1023           16      5.11%     81.79% # Bytes accessed per row activation
system.mem_ctrl.bytesPerActivate::1024-1151           57     18.21%    100.00% # Bytes accessed per row activation
system.mem_ctrl.bytesPerActivate::total           313                       # Bytes accessed per row activation
system.mem_ctrl.rdPerTurnAround::samples           71                       # Reads before turning the bus around for writes
system.mem_ctrl.rdPerTurnAround::mean       14.211268                       # Reads before turning the bus around for writes
system.mem_ctrl.rdPerTurnAround::gmean      13.791369                       # Reads before turning the bus around for writes
system.mem_ctrl.rdPerTurnAround::stdev       4.471866                       # Reads before turning the bus around for writes
system.mem_ctrl.rdPerTurnAround::8-9                3      4.23%      4.23% # Reads before turning the bus around for writes
system.mem_ctrl.rdPerTurnAround::10-11             10     14.08%     18.31% # Reads before turning the bus around for writes
system.mem_ctrl.rdPerTurnAround::12-13             17     23.94%     42.25% # Reads before turning the bus around for writes
system.mem_ctrl.rdPerTurnAround::14-15             21     29.58%     71.83% # Reads before turning the bus around for writes
system.mem_ctrl.rdPerTurnAround::16-17             16     22.54%     94.37% # Reads before turning the bus around for writes
system.mem_ctrl.rdPerTurnAround::18-19              3      4.23%     98.59% # Reads before turning the bus around for writes
system.mem_ctrl.rdPerTurnAround::46-47              1      1.41%    100.00% # Reads before turning the bus around for writes
system.mem_ctrl.rdPerTurnAround::total             71                       # Reads before turning the bus around for writes
system.mem_ctrl.wrPerTurnAround::samples           71                       # Writes before turning the bus around for reads
system.mem_ctrl.wrPerTurnAround::mean       16.253521                       # Writes before turning the bus around for reads
system.mem_ctrl.wrPerTurnAround::gmean      16.234921                       # Writes before turning the bus around for reads
system.mem_ctrl.wrPerTurnAround::stdev       0.823205                       # Writes before turning the bus around for reads
system.mem_ctrl.wrPerTurnAround::16                64     90.14%     90.14% # Writes before turning the bus around for reads
system.mem_ctrl.wrPerTurnAround::17                 1      1.41%     91.55% # Writes before turning the bus around for reads
system.mem_ctrl.wrPerTurnAround::18                 2      2.82%     94.37% # Writes before turning the bus around for reads
system.mem_ctrl.wrPerTurnAround::19                 3      4.23%     98.59% # Writes before turning the bus around for reads
system.mem_ctrl.wrPerTurnAround::20                 1      1.41%    100.00% # Writes before turning the bus around for reads
system.mem_ctrl.wrPerTurnAround::total             71                       # Writes before turning the bus around for reads
system.mem_ctrl.totQLat                      17999750                       # Total ticks spent queuing
system.mem_ctrl.totMemAccLat                 36993500                       # Total ticks spent from burst creation until serviced by the DRAM
system.mem_ctrl.totBusLat                     5065000                       # Total ticks spent in databus transfers
system.mem_ctrl.avgQLat                      17768.76                       # Average queueing delay per DRAM burst
system.mem_ctrl.avgBusLat                     5000.00                       # Average bus latency per DRAM burst
system.mem_ctrl.avgMemAccLat                 36518.76                       # Average memory access latency per DRAM burst
system.mem_ctrl.avgRdBW                        708.83                       # Average DRAM read bandwidth in MiByte/s
system.mem_ctrl.avgWrBW                        807.50                       # Average achieved write bandwidth in MiByte/s
system.mem_ctrl.avgRdBWSys                    1051.70                       # Average system read bandwidth in MiByte/s
system.mem_ctrl.avgWrBWSys                    1040.51                       # Average system write bandwidth in MiByte/s
system.mem_ctrl.peakBW                       12800.00                       # Theoretical peak bandwidth in MiByte/s
system.mem_ctrl.busUtil                         11.85                       # Data bus utilization in percentage
system.mem_ctrl.busUtilRead                      5.54                       # Data bus utilization in percentage for reads
system.mem_ctrl.busUtilWrite                     6.31                       # Data bus utilization in percentage for writes
system.mem_ctrl.avgRdQLen                        1.00                       # Average read queue length when enqueuing
system.mem_ctrl.avgWrQLen                       25.40                       # Average write queue length when enqueuing
system.mem_ctrl.readRowHits                       767                       # Number of row buffer hits during reads
system.mem_ctrl.writeRowHits                     1079                       # Number of row buffer hits during writes
system.mem_ctrl.readRowHitRate                  75.72                       # Row buffer hit rate for reads
system.mem_ctrl.writeRowHitRate                 91.75                       # Row buffer hit rate for writes
system.mem_ctrl.avgGap                       30585.28                       # Average gap between requests
system.mem_ctrl.pageHitRate                     84.33                       # Row buffer hit rate, read and write combined
system.mem_ctrl_0.actEnergy                   1699320                       # Energy for activate commands per rank (pJ)
system.mem_ctrl_0.preEnergy                    895620                       # Energy for precharge commands per rank (pJ)
system.mem_ctrl_0.readEnergy                  4898040                       # Energy for read commands per rank (pJ)
system.mem_ctrl_0.writeEnergy                 3967200                       # Energy for write commands per rank (pJ)
system.mem_ctrl_0.refreshEnergy          6761040.000000                       # Energy for refresh commands per rank (pJ)
system.mem_ctrl_0.actBackEnergy              15583230                       # Energy for active background per rank (pJ)
system.mem_ctrl_0.preBackEnergy                137280                       # Energy for precharge background per rank (pJ)
system.mem_ctrl_0.actPowerDownEnergy         25604970                       # Energy for active power-down per rank (pJ)
system.mem_ctrl_0.prePowerDownEnergy           300000                       # Energy for precharge power-down per rank (pJ)
system.mem_ctrl_0.selfRefreshEnergy                 0                       # Energy for self refresh per rank (pJ)
system.mem_ctrl_0.totalEnergy                59846700                       # Total energy per rank (pJ)
system.mem_ctrl_0.averagePower             654.321521                       # Core power per rank (mW)
system.mem_ctrl_0.totalIdleTime              56892500                       # Total Idle time Per DRAM Rank
system.mem_ctrl_0.memoryStateTime::IDLE         55000                       # Time in different power states
system.mem_ctrl_0.memoryStateTime::REF        2860000                       # Time in different power states
system.mem_ctrl_0.memoryStateTime::SREF             0                       # Time in different power states
system.mem_ctrl_0.memoryStateTime::PRE_PDN       780000                       # Time in different power states
system.mem_ctrl_0.memoryStateTime::ACT       31613250                       # Time in different power states
system.mem_ctrl_0.memoryStateTime::ACT_PDN     56154750                       # Time in different power states
system.mem_ctrl_1.actEnergy                    592620                       # Energy for activate commands per rank (pJ)
system.mem_ctrl_1.preEnergy                    292215                       # Energy for precharge commands per rank (pJ)
system.mem_ctrl_1.readEnergy                  2334780                       # Energy for read commands per rank (pJ)
system.mem_ctrl_1.writeEnergy                 2056680                       # Energy for write commands per rank (pJ)
system.mem_ctrl_1.refreshEnergy          6761040.000000                       # Energy for refresh commands per rank (pJ)
system.mem_ctrl_1.actBackEnergy              11930670                       # Energy for active background per rank (pJ)
system.mem_ctrl_1.preBackEnergy                299040                       # Energy for precharge background per rank (pJ)
system.mem_ctrl_1.actPowerDownEnergy         25263540                       # Energy for active power-down per rank (pJ)
system.mem_ctrl_1.prePowerDownEnergy          3501600                       # Energy for precharge power-down per rank (pJ)
system.mem_ctrl_1.selfRefreshEnergy                 0                       # Energy for self refresh per rank (pJ)
system.mem_ctrl_1.totalEnergy                53032185                       # Total energy per rank (pJ)
system.mem_ctrl_1.averagePower             579.816430                       # Core power per rank (mW)
system.mem_ctrl_1.totalIdleTime              64346750                       # Total Idle time Per DRAM Rank
system.mem_ctrl_1.memoryStateTime::IDLE        474000                       # Time in different power states
system.mem_ctrl_1.memoryStateTime::REF        2860000                       # Time in different power states
system.mem_ctrl_1.memoryStateTime::SREF             0                       # Time in different power states
system.mem_ctrl_1.memoryStateTime::PRE_PDN      9116250                       # Time in different power states
system.mem_ctrl_1.memoryStateTime::ACT       23590500                       # Time in different power states
system.mem_ctrl_1.memoryStateTime::ACT_PDN     55422250                       # Time in different power states
system.pwrStateResidencyTicks::UNDEFINED     91463000                       # Cumulative time (in ticks) in various power states
system.cache.pwrStateResidencyTicks::UNDEFINED     91463000                       # Cumulative time (in ticks) in various power states
system.cache.hits                               10159                       # Number of hits
system.cache.misses                              1503                       # Number of misses
system.cache.missLatency::samples                1503                       # Ticks for misses to the cache
system.cache.missLatency::mean           53094.477711                       # Ticks for misses to the cache
system.cache.missLatency::gmean          45103.666387                       # Ticks for misses to the cache
system.cache.missLatency::stdev          34647.382796                       # Ticks for misses to the cache
system.cache.missLatency::0-32767                 490     32.60%     32.60% # Ticks for misses to the cache
system.cache.missLatency::32768-65535             739     49.17%     81.77% # Ticks for misses to the cache
system.cache.missLatency::65536-98303             195     12.97%     94.74% # Ticks for misses to the cache
system.cache.missLatency::98304-131071             19      1.26%     96.01% # Ticks for misses to the cache
system.cache.missLatency::131072-163839            39      2.59%     98.60% # Ticks for misses to the cache
system.cache.missLatency::163840-196607            10      0.67%     99.27% # Ticks for misses to the cache
system.cache.missLatency::196608-229375             2      0.13%     99.40% # Ticks for misses to the cache
system.cache.missLatency::229376-262143             0      0.00%     99.40% # Ticks for misses to the cache
system.cache.missLatency::262144-294911             3      0.20%     99.60% # Ticks for misses to the cache
system.cache.missLatency::294912-327679             4      0.27%     99.87% # Ticks for misses to the cache
system.cache.missLatency::327680-360447             2      0.13%    100.00% # Ticks for misses to the cache
system.cache.missLatency::360448-393215             0      0.00%    100.00% # Ticks for misses to the cache
system.cache.missLatency::393216-425983             0      0.00%    100.00% # Ticks for misses to the cache
system.cache.missLatency::425984-458751             0      0.00%    100.00% # Ticks for misses to the cache
system.cache.missLatency::458752-491519             0      0.00%    100.00% # Ticks for misses to the cache
system.cache.missLatency::491520-524287             0      0.00%    100.00% # Ticks for misses to the cache
system.cache.missLatency::total                  1503                       # Ticks for misses to the cache
system.cache.hitRatio                        0.871120                       # The ratio of hits to the total accesses to the cache
system.cpu.dtb.fetch_hits                           0                       # ITB hits
system.cpu.dtb.fetch_misses                         0                       # ITB misses
system.cpu.dtb.fetch_acv                            0                       # ITB acv
system.cpu.dtb.fetch_accesses                       0                       # ITB accesses
system.cpu.dtb.read_hits                         1706                       # DTB read hits
system.cpu.dtb.read_misses                         10                       # DTB read misses
system.cpu.dtb.read_acv                             0                       # DTB read access violations
system.cpu.dtb.read_accesses                     1716                       # DTB read accesses
system.cpu.dtb.write_hits                        1209                       # DTB write hits
system.cpu.dtb.write_misses                         2                       # DTB write misses
system.cpu.dtb.write_acv                            0                       # DTB write access violations
system.cpu.dtb.write_accesses                    1211                       # DTB write accesses
system.cpu.dtb.data_hits                         2915                       # DTB hits
system.cpu.dtb.data_misses                         12                       # DTB misses
system.cpu.dtb.data_acv                             0                       # DTB access violations
system.cpu.dtb.data_accesses                     2927                       # DTB accesses
system.cpu.itb.fetch_hits                        8748                       # ITB hits
system.cpu.itb.fetch_misses                        19                       # ITB misses
system.cpu.itb.fetch_acv                            0                       # ITB acv
system.cpu.itb.fetch_accesses                    8767                       # ITB accesses
system.cpu.itb.read_hits                            0                       # DTB read hits
system.cpu.itb.read_misses                          0                       # DTB read misses
system.cpu.itb.read_acv                             0                       # DTB read access violations
system.cpu.itb.read_accesses                        0                       # DTB read accesses
system.cpu.itb.write_hits                           0                       # DTB write hits
system.cpu.itb.write_misses                         0                       # DTB write misses
system.cpu.itb.write_acv                            0                       # DTB write access violations
system.cpu.itb.write_accesses                       0                       # DTB write accesses
system.cpu.itb.data_hits                            0                       # DTB hits
system.cpu.itb.data_misses                          0                       # DTB misses
system.cpu.itb.data_acv                             0                       # DTB access violations
system.cpu.itb.data_accesses                        0                       # DTB accesses
system.cpu.workload.numSyscalls                    10                       # Number of system calls
system.cpu.pwrStateResidencyTicks::ON        91463000                       # Cumulative time (in ticks) in various power states
system.cpu.numCycles                            91463                       # number of cpu cycles simulated
system.cpu.numWorkItemsStarted                      0                       # number of work items this cpu started
system.cpu.numWorkItemsCompleted                    0                       # number of work items this cpu completed
system.cpu.committedInsts                        8735                       # Number of instructions committed
system.cpu.committedOps                          8735                       # Number of ops (including micro ops) committed
system.cpu.num_int_alu_accesses                  8635                       # Number of integer alu accesses
system.cpu.num_fp_alu_accesses                     16                       # Number of float alu accesses
system.cpu.num_vec_alu_accesses                     0                       # Number of vector alu accesses
system.cpu.num_func_calls                         251                       # number of times a function call or return occured
system.cpu.num_conditional_control_insts          899                       # number of instructions that are conditional controls
system.cpu.num_int_insts                         8635                       # number of integer instructions
system.cpu.num_fp_insts                            16                       # number of float instructions
system.cpu.num_vec_insts                            0                       # number of vector instructions
system.cpu.num_int_register_reads               11747                       # number of times the integer registers were read
system.cpu.num_int_register_writes               6376                       # number of times the integer registers were written
system.cpu.num_fp_register_reads                   14                       # number of times the floating registers were read
system.cpu.num_fp_register_writes                   2                       # number of times the floating registers were written
system.cpu.num_vec_register_reads                   0                       # number of times the vector registers were read
system.cpu.num_vec_register_writes                  0                       # number of times the vector registers were written
system.cpu.num_mem_refs                          2927                       # number of memory refs
system.cpu.num_load_insts                        1716                       # Number of load instructions
system.cpu.num_store_insts                       1211                       # Number of store instructions
system.cpu.num_idle_cycles                          0                       # Number of idle cycles
system.cpu.num_busy_cycles                      91463                       # Number of busy cycles
system.cpu.not_idle_fraction                        1                       # Percentage of non-idle cycles
system.cpu.idle_fraction                            0                       # Percentage of idle cycles
system.cpu.Branches                              1237                       # Number of branches fetched
system.cpu.op_class::No_OpClass                    32      0.37%      0.37% # Class of executed instruction
system.cpu.op_class::IntAlu                      5785     66.14%     66.50% # Class of executed instruction
system.cpu.op_class::IntMult                        1      0.01%     66.51% # Class of executed instruction
system.cpu.op_class::IntDiv                         0      0.00%     66.51% # Class of executed instruction
system.cpu.op_class::FloatAdd                       2      0.02%     66.54% # Class of executed instruction
system.cpu.op_class::FloatCmp                       0      0.00%     66.54% # Class of executed instruction
system.cpu.op_class::FloatCvt                       0      0.00%     66.54% # Class of executed instruction
system.cpu.op_class::FloatMult                      0      0.00%     66.54% # Class of executed instruction
system.cpu.op_class::FloatMultAcc                   0      0.00%     66.54% # Class of executed instruction
system.cpu.op_class::FloatDiv                       0      0.00%     66.54% # Class of executed instruction
system.cpu.op_class::FloatMisc                      0      0.00%     66.54% # Class of executed instruction
system.cpu.op_class::FloatSqrt                      0      0.00%     66.54% # Class of executed instruction
system.cpu.op_class::SimdAdd                        0      0.00%     66.54% # Class of executed instruction
system.cpu.op_class::SimdAddAcc                     0      0.00%     66.54% # Class of executed instruction
system.cpu.op_class::SimdAlu                        0      0.00%     66.54% # Class of executed instruction
system.cpu.op_class::SimdCmp                        0      0.00%     66.54% # Class of executed instruction
system.cpu.op_class::SimdCvt                        0      0.00%     66.54% # Class of executed instruction
system.cpu.op_class::SimdMisc                       0      0.00%     66.54% # Class of executed instruction
system.cpu.op_class::SimdMult                       0      0.00%     66.54% # Class of executed instruction
system.cpu.op_class::SimdMultAcc                    0      0.00%     66.54% # Class of executed instruction
system.cpu.op_class::SimdShift                      0      0.00%     66.54% # Class of executed instruction
system.cpu.op_class::SimdShiftAcc                   0      0.00%     66.54% # Class of executed instruction
system.cpu.op_class::SimdSqrt                       0      0.00%     66.54% # Class of executed instruction
system.cpu.op_class::SimdFloatAdd                   0      0.00%     66.54% # Class of executed instruction
system.cpu.op_class::SimdFloatAlu                   0      0.00%     66.54% # Class of executed instruction
system.cpu.op_class::SimdFloatCmp                   0      0.00%     66.54% # Class of executed instruction
system.cpu.op_class::SimdFloatCvt                   0      0.00%     66.54% # Class of executed instruction
system.cpu.op_class::SimdFloatDiv                   0      0.00%     66.54% # Class of executed instruction
system.cpu.op_class::SimdFloatMisc                  0      0.00%     66.54% # Class of executed instruction
system.cpu.op_class::SimdFloatMult                  0      0.00%     66.54% # Class of executed instruction
system.cpu.op_class::SimdFloatMultAcc               0      0.00%     66.54% # Class of executed instruction
system.cpu.op_class::SimdFloatSqrt                  0      0.00%     66.54% # Class of executed instruction
system.cpu.op_class::MemRead                     1715     19.61%     86.14% # Class of executed instruction
system.cpu.op_class::MemWrite                    1198     13.70%     99.84% # Class of executed instruction
system.cpu.op_class::FloatMemRead                   1      0.01%     99.85% # Class of executed instruction
system.cpu.op_class::FloatMemWrite                 13      0.15%    100.00% # Class of executed instruction
system.cpu.op_class::IprAccess                      0      0.00%    100.00% # Class of executed instruction
system.cpu.op_class::InstPrefetch                   0      0.00%    100.00% # Class of executed instruction
system.cpu.op_class::total                       8747                       # Class of executed instruction
system.membus.snoop_filter.tot_requests             0                       # Total number of requests made to the snoop filter.
system.membus.snoop_filter.hit_single_requests            0                       # Number of requests hitting in the snoop filter with a single holder of the requested data.
system.membus.snoop_filter.hit_multi_requests            0                       # Number of requests hitting in the snoop filter with multiple (>1) holders of the requested data.
system.membus.snoop_filter.tot_snoops               0                       # Total number of snoops made to the snoop filter.
system.membus.snoop_filter.hit_single_snoops            0                       # Number of snoops hitting in the snoop filter with a single holder of the requested data.
system.membus.snoop_filter.hit_multi_snoops            0                       # Number of snoops hitting in the snoop filter with multiple (>1) holders of the requested data.
system.membus.pwrStateResidencyTicks::UNDEFINED     91463000                       # Cumulative time (in ticks) in various power states
system.membus.trans_dist::ReadReq                1503                       # Transaction distribution
system.membus.trans_dist::ReadResp               1503                       # Transaction distribution
system.membus.trans_dist::WritebackDirty         1487                       # Transaction distribution
system.membus.pkt_count_system.cache.mem_side::system.mem_ctrl.port         4493                       # Packet count per connected master and slave (bytes)
system.membus.pkt_count::total                   4493                       # Packet count per connected master and slave (bytes)
system.membus.pkt_size_system.cache.mem_side::system.mem_ctrl.port       191360                       # Cumulative packet size per connected master and slave (bytes)
system.membus.pkt_size::total                  191360                       # Cumulative packet size per connected master and slave (bytes)
system.membus.snoops                                0                       # Total snoops (count)
system.membus.snoopTraffic                          0                       # Total snoop traffic (bytes)
system.membus.snoop_fanout::samples              1503                       # Request fanout histogram
system.membus.snoop_fanout::mean                    0                       # Request fanout histogram
system.membus.snoop_fanout::stdev                   0                       # Request fanout histogram
system.membus.snoop_fanout::underflows              0      0.00%      0.00% # Request fanout histogram
system.membus.snoop_fanout::0                    1503    100.00%    100.00% # Request fanout histogram
system.membus.snoop_fanout::overflows               0      0.00%    100.00% # Request fanout histogram
system.membus.snoop_fanout::min_value               0                       # Request fanout histogram
system.membus.snoop_fanout::max_value               0                       # Request fanout histogram
system.membus.snoop_fanout::total                1503                       # Request fanout histogram
system.membus.reqLayer0.occupancy             8938000                       # Layer occupancy (ticks)
system.membus.reqLayer0.utilization               9.8                       # Layer utilization (%)
system.membus.respLayer0.occupancy            7847500                       # Layer occupancy (ticks)
system.membus.respLayer0.utilization              8.6                       # Layer utilization (%)

---------- End Simulation Statistics   ----------
