
---------- Begin Simulation Statistics ----------
sim_seconds                                  0.000222                       # Number of seconds simulated
sim_ticks                                   221571000                       # Number of ticks simulated
final_tick                                  221571000                       # Number of ticks from beginning of simulation (restored from checkpoints and never reset)
sim_freq                                 1000000000000                       # Frequency of simulated ticks
host_inst_rate                                 241915                       # Simulator instruction rate (inst/s)
host_op_rate                                   241848                       # Simulator op (including micro ops) rate (op/s)
host_tick_rate                             6110617761                       # Simulator tick rate (ticks/s)
host_mem_usage                                6697108                       # Number of bytes of host memory used
host_seconds                                     0.04                       # Real time elapsed on the host
sim_insts                                        8767                       # Number of instructions simulated
sim_ops                                          8767                       # Number of ops (including micro ops) simulated
system.clk_domain.voltage_domain.voltage            1                       # Voltage in Volts
system.clk_domain.clock                          1000                       # Clock period in ticks
system.mem_ctrl.pwrStateResidencyTicks::UNDEFINED    221571000                       # Cumulative time (in ticks) in various power states
system.mem_ctrl.bytes_read::cpu.inst           242752                       # Number of bytes read from this memory
system.mem_ctrl.bytes_read::cpu.data           175808                       # Number of bytes read from this memory
system.mem_ctrl.bytes_read::total              418560                       # Number of bytes read from this memory
system.mem_ctrl.bytes_inst_read::cpu.inst       242752                       # Number of instructions bytes read from this memory
system.mem_ctrl.bytes_inst_read::total         242752                       # Number of instructions bytes read from this memory
system.mem_ctrl.bytes_written::writebacks       417536                       # Number of bytes written to this memory
system.mem_ctrl.bytes_written::total           417536                       # Number of bytes written to this memory
system.mem_ctrl.num_reads::cpu.inst              3793                       # Number of read requests responded to by this memory
system.mem_ctrl.num_reads::cpu.data              2747                       # Number of read requests responded to by this memory
system.mem_ctrl.num_reads::total                 6540                       # Number of read requests responded to by this memory
system.mem_ctrl.num_writes::writebacks           6524                       # Number of write requests responded to by this memory
system.mem_ctrl.num_writes::total                6524                       # Number of write requests responded to by this memory
system.mem_ctrl.bw_read::cpu.inst          1095594640                       # Total read bandwidth from this memory (bytes/s)
system.mem_ctrl.bw_read::cpu.data           793461238                       # Total read bandwidth from this memory (bytes/s)
system.mem_ctrl.bw_read::total             1889055878                       # Total read bandwidth from this memory (bytes/s)
system.mem_ctrl.bw_inst_read::cpu.inst     1095594640                       # Instruction read bandwidth from this memory (bytes/s)
system.mem_ctrl.bw_inst_read::total        1095594640                       # Instruction read bandwidth from this memory (bytes/s)
system.mem_ctrl.bw_write::writebacks       1884434335                       # Write bandwidth from this memory (bytes/s)
system.mem_ctrl.bw_write::total            1884434335                       # Write bandwidth from this memory (bytes/s)
system.mem_ctrl.bw_total::writebacks       1884434335                       # Total bandwidth to/from this memory (bytes/s)
system.mem_ctrl.bw_total::cpu.inst         1095594640                       # Total bandwidth to/from this memory (bytes/s)
system.mem_ctrl.bw_total::cpu.data          793461238                       # Total bandwidth to/from this memory (bytes/s)
system.mem_ctrl.bw_total::total            3773490213                       # Total bandwidth to/from this memory (bytes/s)
system.mem_ctrl.readReqs                         6540                       # Number of read requests accepted
system.mem_ctrl.writeReqs                        6524                       # Number of write requests accepted
system.mem_ctrl.readBursts                       6540                       # Number of DRAM read bursts, including those serviced by the write queue
system.mem_ctrl.writeBursts                      6524                       # Number of DRAM write bursts, including those merged in the write queue
system.mem_ctrl.bytesReadDRAM                   77696                       # Total number of bytes read from DRAM
system.mem_ctrl.bytesReadWrQ                   340864                       # Total number of bytes read from write queue
system.mem_ctrl.bytesWritten                    77824                       # Total number of bytes written to DRAM
system.mem_ctrl.bytesReadSys                   418560                       # Total read bytes from the system interface side
system.mem_ctrl.bytesWrittenSys                417536                       # Total written bytes from the system interface side
system.mem_ctrl.servicedByWrQ                    5326                       # Number of DRAM read bursts serviced by the write queue
system.mem_ctrl.mergedWrBursts                   5292                       # Number of DRAM write bursts merged with an existing one
system.mem_ctrl.neitherReadNorWriteReqs             0                       # Number of requests that are neither read nor write
system.mem_ctrl.perBankRdBursts::0                 89                       # Per bank write bursts
system.mem_ctrl.perBankRdBursts::1                 25                       # Per bank write bursts
system.mem_ctrl.perBankRdBursts::2                244                       # Per bank write bursts
system.mem_ctrl.perBankRdBursts::3                174                       # Per bank write bursts
system.mem_ctrl.perBankRdBursts::4                115                       # Per bank write bursts
system.mem_ctrl.perBankRdBursts::5                 51                       # Per bank write bursts
system.mem_ctrl.perBankRdBursts::6                 29                       # Per bank write bursts
system.mem_ctrl.perBankRdBursts::7                 65                       # Per bank write bursts
system.mem_ctrl.perBankRdBursts::8                  4                       # Per bank write bursts
system.mem_ctrl.perBankRdBursts::9                168                       # Per bank write bursts
system.mem_ctrl.perBankRdBursts::10                13                       # Per bank write bursts
system.mem_ctrl.perBankRdBursts::11                30                       # Per bank write bursts
system.mem_ctrl.perBankRdBursts::12                 5                       # Per bank write bursts
system.mem_ctrl.perBankRdBursts::13                34                       # Per bank write bursts
system.mem_ctrl.perBankRdBursts::14               104                       # Per bank write bursts
system.mem_ctrl.perBankRdBursts::15                64                       # Per bank write bursts
system.mem_ctrl.perBankWrBursts::0                 92                       # Per bank write bursts
system.mem_ctrl.perBankWrBursts::1                 26                       # Per bank write bursts
system.mem_ctrl.perBankWrBursts::2                238                       # Per bank write bursts
system.mem_ctrl.perBankWrBursts::3                169                       # Per bank write bursts
system.mem_ctrl.perBankWrBursts::4                117                       # Per bank write bursts
system.mem_ctrl.perBankWrBursts::5                 51                       # Per bank write bursts
system.mem_ctrl.perBankWrBursts::6                 30                       # Per bank write bursts
system.mem_ctrl.perBankWrBursts::7                 67                       # Per bank write bursts
system.mem_ctrl.perBankWrBursts::8                  4                       # Per bank write bursts
system.mem_ctrl.perBankWrBursts::9                176                       # Per bank write bursts
system.mem_ctrl.perBankWrBursts::10                13                       # Per bank write bursts
system.mem_ctrl.perBankWrBursts::11                30                       # Per bank write bursts
system.mem_ctrl.perBankWrBursts::12                 5                       # Per bank write bursts
system.mem_ctrl.perBankWrBursts::13                34                       # Per bank write bursts
system.mem_ctrl.perBankWrBursts::14               105                       # Per bank write bursts
system.mem_ctrl.perBankWrBursts::15                59                       # Per bank write bursts
system.mem_ctrl.numRdRetry                          0                       # Number of times read queue was full causing retry
system.mem_ctrl.numWrRetry                          0                       # Number of times write queue was full causing retry
system.mem_ctrl.totGap                      221567000                       # Total gap between requests
system.mem_ctrl.readPktSize::0                      0                       # Read request sizes (log2)
system.mem_ctrl.readPktSize::1                      0                       # Read request sizes (log2)
system.mem_ctrl.readPktSize::2                      0                       # Read request sizes (log2)
system.mem_ctrl.readPktSize::3                      0                       # Read request sizes (log2)
system.mem_ctrl.readPktSize::4                      0                       # Read request sizes (log2)
system.mem_ctrl.readPktSize::5                      0                       # Read request sizes (log2)
system.mem_ctrl.readPktSize::6                   6540                       # Read request sizes (log2)
system.mem_ctrl.writePktSize::0                     0                       # Write request sizes (log2)
system.mem_ctrl.writePktSize::1                     0                       # Write request sizes (log2)
system.mem_ctrl.writePktSize::2                     0                       # Write request sizes (log2)
system.mem_ctrl.writePktSize::3                     0                       # Write request sizes (log2)
system.mem_ctrl.writePktSize::4                     0                       # Write request sizes (log2)
system.mem_ctrl.writePktSize::5                     0                       # Write request sizes (log2)
system.mem_ctrl.writePktSize::6                  6524                       # Write request sizes (log2)
system.mem_ctrl.rdQLenPdf::0                     1214                       # What read queue length does an incoming req see
system.mem_ctrl.rdQLenPdf::1                        0                       # What read queue length does an incoming req see
system.mem_ctrl.rdQLenPdf::2                        0                       # What read queue length does an incoming req see
system.mem_ctrl.rdQLenPdf::3                        0                       # What read queue length does an incoming req see
system.mem_ctrl.rdQLenPdf::4                        0                       # What read queue length does an incoming req see
system.mem_ctrl.rdQLenPdf::5                        0                       # What read queue length does an incoming req see
system.mem_ctrl.rdQLenPdf::6                        0                       # What read queue length does an incoming req see
system.mem_ctrl.rdQLenPdf::7                        0                       # What read queue length does an incoming req see
system.mem_ctrl.rdQLenPdf::8                        0                       # What read queue length does an incoming req see
system.mem_ctrl.rdQLenPdf::9                        0                       # What read queue length does an incoming req see
system.mem_ctrl.rdQLenPdf::10                       0                       # What read queue length does an incoming req see
system.mem_ctrl.rdQLenPdf::11                       0                       # What read queue length does an incoming req see
system.mem_ctrl.rdQLenPdf::12                       0                       # What read queue length does an incoming req see
system.mem_ctrl.rdQLenPdf::13                       0                       # What read queue length does an incoming req see
system.mem_ctrl.rdQLenPdf::14                       0                       # What read queue length does an incoming req see
system.mem_ctrl.rdQLenPdf::15                       0                       # What read queue length does an incoming req see
system.mem_ctrl.rdQLenPdf::16                       0                       # What read queue length does an incoming req see
system.mem_ctrl.rdQLenPdf::17                       0                       # What read queue length does an incoming req see
system.mem_ctrl.rdQLenPdf::18                       0                       # What read queue length does an incoming req see
system.mem_ctrl.rdQLenPdf::19                       0                       # What read queue length does an incoming req see
system.mem_ctrl.rdQLenPdf::20                       0                       # What read queue length does an incoming req see
system.mem_ctrl.rdQLenPdf::21                       0                       # What read queue length does an incoming req see
system.mem_ctrl.rdQLenPdf::22                       0                       # What read queue length does an incoming req see
system.mem_ctrl.rdQLenPdf::23                       0                       # What read queue length does an incoming req see
system.mem_ctrl.rdQLenPdf::24                       0                       # What read queue length does an incoming req see
system.mem_ctrl.rdQLenPdf::25                       0                       # What read queue length does an incoming req see
system.mem_ctrl.rdQLenPdf::26                       0                       # What read queue length does an incoming req see
system.mem_ctrl.rdQLenPdf::27                       0                       # What read queue length does an incoming req see
system.mem_ctrl.rdQLenPdf::28                       0                       # What read queue length does an incoming req see
system.mem_ctrl.rdQLenPdf::29                       0                       # What read queue length does an incoming req see
system.mem_ctrl.rdQLenPdf::30                       0                       # What read queue length does an incoming req see
system.mem_ctrl.rdQLenPdf::31                       0                       # What read queue length does an incoming req see
system.mem_ctrl.wrQLenPdf::0                        1                       # What write queue length does an incoming req see
system.mem_ctrl.wrQLenPdf::1                        1                       # What write queue length does an incoming req see
system.mem_ctrl.wrQLenPdf::2                        1                       # What write queue length does an incoming req see
system.mem_ctrl.wrQLenPdf::3                        1                       # What write queue length does an incoming req see
system.mem_ctrl.wrQLenPdf::4                        1                       # What write queue length does an incoming req see
system.mem_ctrl.wrQLenPdf::5                        1                       # What write queue length does an incoming req see
system.mem_ctrl.wrQLenPdf::6                        1                       # What write queue length does an incoming req see
system.mem_ctrl.wrQLenPdf::7                        1                       # What write queue length does an incoming req see
system.mem_ctrl.wrQLenPdf::8                        1                       # What write queue length does an incoming req see
system.mem_ctrl.wrQLenPdf::9                        1                       # What write queue length does an incoming req see
system.mem_ctrl.wrQLenPdf::10                       1                       # What write queue length does an incoming req see
system.mem_ctrl.wrQLenPdf::11                       1                       # What write queue length does an incoming req see
system.mem_ctrl.wrQLenPdf::12                       1                       # What write queue length does an incoming req see
system.mem_ctrl.wrQLenPdf::13                       1                       # What write queue length does an incoming req see
system.mem_ctrl.wrQLenPdf::14                       1                       # What write queue length does an incoming req see
system.mem_ctrl.wrQLenPdf::15                      23                       # What write queue length does an incoming req see
system.mem_ctrl.wrQLenPdf::16                      25                       # What write queue length does an incoming req see
system.mem_ctrl.wrQLenPdf::17                      58                       # What write queue length does an incoming req see
system.mem_ctrl.wrQLenPdf::18                      74                       # What write queue length does an incoming req see
system.mem_ctrl.wrQLenPdf::19                      73                       # What write queue length does an incoming req see
system.mem_ctrl.wrQLenPdf::20                      73                       # What write queue length does an incoming req see
system.mem_ctrl.wrQLenPdf::21                      72                       # What write queue length does an incoming req see
system.mem_ctrl.wrQLenPdf::22                      72                       # What write queue length does an incoming req see
system.mem_ctrl.wrQLenPdf::23                      95                       # What write queue length does an incoming req see
system.mem_ctrl.wrQLenPdf::24                      76                       # What write queue length does an incoming req see
system.mem_ctrl.wrQLenPdf::25                      72                       # What write queue length does an incoming req see
system.mem_ctrl.wrQLenPdf::26                      72                       # What write queue length does an incoming req see
system.mem_ctrl.wrQLenPdf::27                      72                       # What write queue length does an incoming req see
system.mem_ctrl.wrQLenPdf::28                      72                       # What write queue length does an incoming req see
system.mem_ctrl.wrQLenPdf::29                      72                       # What write queue length does an incoming req see
system.mem_ctrl.wrQLenPdf::30                      72                       # What write queue length does an incoming req see
system.mem_ctrl.wrQLenPdf::31                      72                       # What write queue length does an incoming req see
system.mem_ctrl.wrQLenPdf::32                      72                       # What write queue length does an incoming req see
system.mem_ctrl.wrQLenPdf::33                       0                       # What write queue length does an incoming req see
system.mem_ctrl.wrQLenPdf::34                       0                       # What write queue length does an incoming req see
system.mem_ctrl.wrQLenPdf::35                       0                       # What write queue length does an incoming req see
system.mem_ctrl.wrQLenPdf::36                       0                       # What write queue length does an incoming req see
system.mem_ctrl.wrQLenPdf::37                       0                       # What write queue length does an incoming req see
system.mem_ctrl.wrQLenPdf::38                       0                       # What write queue length does an incoming req see
system.mem_ctrl.wrQLenPdf::39                       0                       # What write queue length does an incoming req see
system.mem_ctrl.wrQLenPdf::40                       0                       # What write queue length does an incoming req see
system.mem_ctrl.wrQLenPdf::41                       0                       # What write queue length does an incoming req see
system.mem_ctrl.wrQLenPdf::42                       0                       # What write queue length does an incoming req see
system.mem_ctrl.wrQLenPdf::43                       0                       # What write queue length does an incoming req see
system.mem_ctrl.wrQLenPdf::44                       0                       # What write queue length does an incoming req see
system.mem_ctrl.wrQLenPdf::45                       0                       # What write queue length does an incoming req see
system.mem_ctrl.wrQLenPdf::46                       0                       # What write queue length does an incoming req see
system.mem_ctrl.wrQLenPdf::47                       0                       # What write queue length does an incoming req see
system.mem_ctrl.wrQLenPdf::48                       0                       # What write queue length does an incoming req see
system.mem_ctrl.wrQLenPdf::49                       0                       # What write queue length does an incoming req see
system.mem_ctrl.wrQLenPdf::50                       0                       # What write queue length does an incoming req see
system.mem_ctrl.wrQLenPdf::51                       0                       # What write queue length does an incoming req see
system.mem_ctrl.wrQLenPdf::52                       0                       # What write queue length does an incoming req see
system.mem_ctrl.wrQLenPdf::53                       0                       # What write queue length does an incoming req see
system.mem_ctrl.wrQLenPdf::54                       0                       # What write queue length does an incoming req see
system.mem_ctrl.wrQLenPdf::55                       0                       # What write queue length does an incoming req see
system.mem_ctrl.wrQLenPdf::56                       0                       # What write queue length does an incoming req see
system.mem_ctrl.wrQLenPdf::57                       0                       # What write queue length does an incoming req see
system.mem_ctrl.wrQLenPdf::58                       0                       # What write queue length does an incoming req see
system.mem_ctrl.wrQLenPdf::59                       0                       # What write queue length does an incoming req see
system.mem_ctrl.wrQLenPdf::60                       0                       # What write queue length does an incoming req see
system.mem_ctrl.wrQLenPdf::61                       0                       # What write queue length does an incoming req see
system.mem_ctrl.wrQLenPdf::62                       0                       # What write queue length does an incoming req see
system.mem_ctrl.wrQLenPdf::63                       0                       # What write queue length does an incoming req see
system.mem_ctrl.bytesPerActivate::samples          380                       # Bytes accessed per row activation
system.mem_ctrl.bytesPerActivate::mean     404.715789                       # Bytes accessed per row activation
system.mem_ctrl.bytesPerActivate::gmean    262.651177                       # Bytes accessed per row activation
system.mem_ctrl.bytesPerActivate::stdev    346.623355                       # Bytes accessed per row activation
system.mem_ctrl.bytesPerActivate::0-127            80     21.05%     21.05% # Bytes accessed per row activation
system.mem_ctrl.bytesPerActivate::128-255           83     21.84%     42.89% # Bytes accessed per row activation
system.mem_ctrl.bytesPerActivate::256-383           59     15.53%     58.42% # Bytes accessed per row activation
system.mem_ctrl.bytesPerActivate::384-511           35      9.21%     67.63% # Bytes accessed per row activation
system.mem_ctrl.bytesPerActivate::512-639           23      6.05%     73.68% # Bytes accessed per row activation
system.mem_ctrl.bytesPerActivate::640-767           15      3.95%     77.63% # Bytes accessed per row activation
system.mem_ctrl.bytesPerActivate::768-895           12      3.16%     80.79% # Bytes accessed per row activation
system.mem_ctrl.bytesPerActivate::896-1023           12      3.16%     83.95% # Bytes accessed per row activation
system.mem_ctrl.bytesPerActivate::1024-1151           61     16.05%    100.00% # Bytes accessed per row activation
system.mem_ctrl.bytesPerActivate::total           380                       # Bytes accessed per row activation
system.mem_ctrl.rdPerTurnAround::samples           72                       # Reads before turning the bus around for writes
system.mem_ctrl.rdPerTurnAround::mean       16.861111                       # Reads before turning the bus around for writes
system.mem_ctrl.rdPerTurnAround::gmean      16.611578                       # Reads before turning the bus around for writes
system.mem_ctrl.rdPerTurnAround::stdev       4.043097                       # Reads before turning the bus around for writes
system.mem_ctrl.rdPerTurnAround::14-15             22     30.56%     30.56% # Reads before turning the bus around for writes
system.mem_ctrl.rdPerTurnAround::16-17             31     43.06%     73.61% # Reads before turning the bus around for writes
system.mem_ctrl.rdPerTurnAround::18-19             18     25.00%     98.61% # Reads before turning the bus around for writes
system.mem_ctrl.rdPerTurnAround::48-49              1      1.39%    100.00% # Reads before turning the bus around for writes
system.mem_ctrl.rdPerTurnAround::total             72                       # Reads before turning the bus around for writes
system.mem_ctrl.wrPerTurnAround::samples           72                       # Writes before turning the bus around for reads
system.mem_ctrl.wrPerTurnAround::mean       16.888889                       # Writes before turning the bus around for reads
system.mem_ctrl.wrPerTurnAround::gmean      16.844320                       # Writes before turning the bus around for reads
system.mem_ctrl.wrPerTurnAround::stdev       1.262186                       # Writes before turning the bus around for reads
system.mem_ctrl.wrPerTurnAround::16                45     62.50%     62.50% # Writes before turning the bus around for reads
system.mem_ctrl.wrPerTurnAround::17                 5      6.94%     69.44% # Writes before turning the bus around for reads
system.mem_ctrl.wrPerTurnAround::18                 8     11.11%     80.56% # Writes before turning the bus around for reads
system.mem_ctrl.wrPerTurnAround::19                13     18.06%     98.61% # Writes before turning the bus around for reads
system.mem_ctrl.wrPerTurnAround::20                 1      1.39%    100.00% # Writes before turning the bus around for reads
system.mem_ctrl.wrPerTurnAround::total             72                       # Writes before turning the bus around for reads
system.mem_ctrl.totQLat                      21900750                       # Total ticks spent queuing
system.mem_ctrl.totMemAccLat                 44663250                       # Total ticks spent from burst creation until serviced by the DRAM
system.mem_ctrl.totBusLat                     6070000                       # Total ticks spent in databus transfers
system.mem_ctrl.avgQLat                      18040.16                       # Average queueing delay per DRAM burst
system.mem_ctrl.avgBusLat                     5000.00                       # Average bus latency per DRAM burst
system.mem_ctrl.avgMemAccLat                 36790.16                       # Average memory access latency per DRAM burst
system.mem_ctrl.avgRdBW                        350.66                       # Average DRAM read bandwidth in MiByte/s
system.mem_ctrl.avgWrBW                        351.24                       # Average achieved write bandwidth in MiByte/s
system.mem_ctrl.avgRdBWSys                    1889.06                       # Average system read bandwidth in MiByte/s
system.mem_ctrl.avgWrBWSys                    1884.43                       # Average system write bandwidth in MiByte/s
system.mem_ctrl.peakBW                       12800.00                       # Theoretical peak bandwidth in MiByte/s
system.mem_ctrl.busUtil                          5.48                       # Data bus utilization in percentage
system.mem_ctrl.busUtilRead                      2.74                       # Data bus utilization in percentage for reads
system.mem_ctrl.busUtilWrite                     2.74                       # Data bus utilization in percentage for writes
system.mem_ctrl.avgRdQLen                        1.00                       # Average read queue length when enqueuing
system.mem_ctrl.avgWrQLen                       25.26                       # Average write queue length when enqueuing
system.mem_ctrl.readRowHits                       907                       # Number of row buffer hits during reads
system.mem_ctrl.writeRowHits                     1136                       # Number of row buffer hits during writes
system.mem_ctrl.readRowHitRate                  74.71                       # Row buffer hit rate for reads
system.mem_ctrl.writeRowHitRate                 92.21                       # Row buffer hit rate for writes
system.mem_ctrl.avgGap                       16960.12                       # Average gap between requests
system.mem_ctrl.pageHitRate                     83.52                       # Row buffer hit rate, read and write combined
system.mem_ctrl_0.actEnergy                   1942080                       # Energy for activate commands per rank (pJ)
system.mem_ctrl_0.preEnergy                   1017060                       # Energy for precharge commands per rank (pJ)
system.mem_ctrl_0.readEnergy                  5654880                       # Energy for read commands per rank (pJ)
system.mem_ctrl_0.writeEnergy                 4123800                       # Energy for write commands per rank (pJ)
system.mem_ctrl_0.refreshEnergy          17824560.000000                       # Energy for refresh commands per rank (pJ)
system.mem_ctrl_0.actBackEnergy              22965870                       # Energy for active background per rank (pJ)
system.mem_ctrl_0.preBackEnergy                460800                       # Energy for precharge background per rank (pJ)
system.mem_ctrl_0.actPowerDownEnergy         70076370                       # Energy for active power-down per rank (pJ)
system.mem_ctrl_0.prePowerDownEnergy          5810400                       # Energy for precharge power-down per rank (pJ)
system.mem_ctrl_0.selfRefreshEnergy      840240.000000                       # Energy for self refresh per rank (pJ)
system.mem_ctrl_0.totalEnergy               130716060                       # Total energy per rank (pJ)
system.mem_ctrl_0.averagePower             589.950456                       # Core power per rank (mW)
system.mem_ctrl_0.totalIdleTime             170066750                       # Total Idle time Per DRAM Rank
system.mem_ctrl_0.memoryStateTime::IDLE        409000                       # Time in different power states
system.mem_ctrl_0.memoryStateTime::REF        7546000                       # Time in different power states
system.mem_ctrl_0.memoryStateTime::SREF       1200250                       # Time in different power states
system.mem_ctrl_0.memoryStateTime::PRE_PDN     15126000                       # Time in different power states
system.mem_ctrl_0.memoryStateTime::ACT       43549250                       # Time in different power states
system.mem_ctrl_0.memoryStateTime::ACT_PDN    153740500                       # Time in different power states
system.mem_ctrl_1.actEnergy                    821100                       # Energy for activate commands per rank (pJ)
system.mem_ctrl_1.preEnergy                    425040                       # Energy for precharge commands per rank (pJ)
system.mem_ctrl_1.readEnergy                  3013080                       # Energy for read commands per rank (pJ)
system.mem_ctrl_1.writeEnergy                 2223720                       # Energy for write commands per rank (pJ)
system.mem_ctrl_1.refreshEnergy          17209920.000000                       # Energy for refresh commands per rank (pJ)
system.mem_ctrl_1.actBackEnergy              14771550                       # Energy for active background per rank (pJ)
system.mem_ctrl_1.preBackEnergy                598080                       # Energy for precharge background per rank (pJ)
system.mem_ctrl_1.actPowerDownEnergy         68304240                       # Energy for active power-down per rank (pJ)
system.mem_ctrl_1.prePowerDownEnergy         11343840                       # Energy for precharge power-down per rank (pJ)
system.mem_ctrl_1.selfRefreshEnergy           2541540                       # Energy for self refresh per rank (pJ)
system.mem_ctrl_1.totalEnergy               121252110                       # Total energy per rank (pJ)
system.mem_ctrl_1.averagePower             547.237559                       # Core power per rank (mW)
system.mem_ctrl_1.totalIdleTime             187624500                       # Total Idle time Per DRAM Rank
system.mem_ctrl_1.memoryStateTime::IDLE        816000                       # Time in different power states
system.mem_ctrl_1.memoryStateTime::REF        7286000                       # Time in different power states
system.mem_ctrl_1.memoryStateTime::SREF       8288250                       # Time in different power states
system.mem_ctrl_1.memoryStateTime::PRE_PDN     29537500                       # Time in different power states
system.mem_ctrl_1.memoryStateTime::ACT       25844500                       # Time in different power states
system.mem_ctrl_1.memoryStateTime::ACT_PDN    149798750                       # Time in different power states
system.pwrStateResidencyTicks::UNDEFINED    221571000                       # Cumulative time (in ticks) in various power states
system.cache.pwrStateResidencyTicks::UNDEFINED    221571000                       # Cumulative time (in ticks) in various power states
system.cache.hits                                5158                       # Number of hits
system.cache.misses                              6540                       # Number of misses
system.cache.missLatency::samples                6540                       # Ticks for misses to the cache
system.cache.missLatency::mean           32090.672783                       # Ticks for misses to the cache
system.cache.missLatency::gmean          28361.408415                       # Ticks for misses to the cache
system.cache.missLatency::stdev          25223.082467                       # Ticks for misses to the cache
system.cache.missLatency::0-65535                6215     95.03%     95.03% # Ticks for misses to the cache
system.cache.missLatency::65536-131071            268      4.10%     99.13% # Ticks for misses to the cache
system.cache.missLatency::131072-196607            33      0.50%     99.63% # Ticks for misses to the cache
system.cache.missLatency::196608-262143             7      0.11%     99.74% # Ticks for misses to the cache
system.cache.missLatency::262144-327679            11      0.17%     99.91% # Ticks for misses to the cache
system.cache.missLatency::327680-393215             4      0.06%     99.97% # Ticks for misses to the cache
system.cache.missLatency::393216-458751             0      0.00%     99.97% # Ticks for misses to the cache
system.cache.missLatency::458752-524287             0      0.00%     99.97% # Ticks for misses to the cache
system.cache.missLatency::524288-589823             0      0.00%     99.97% # Ticks for misses to the cache
system.cache.missLatency::589824-655359             2      0.03%    100.00% # Ticks for misses to the cache
system.cache.missLatency::655360-720895             0      0.00%    100.00% # Ticks for misses to the cache
system.cache.missLatency::720896-786431             0      0.00%    100.00% # Ticks for misses to the cache
system.cache.missLatency::786432-851967             0      0.00%    100.00% # Ticks for misses to the cache
system.cache.missLatency::851968-917503             0      0.00%    100.00% # Ticks for misses to the cache
system.cache.missLatency::917504-983039             0      0.00%    100.00% # Ticks for misses to the cache
system.cache.missLatency::983040-1.04858e+06            0      0.00%    100.00% # Ticks for misses to the cache
system.cache.missLatency::total                  6540                       # Ticks for misses to the cache
system.cache.hitRatio                        0.440930                       # The ratio of hits to the total accesses to the cache
system.cpu.dtb.fetch_hits                           0                       # ITB hits
system.cpu.dtb.fetch_misses                         0                       # ITB misses
system.cpu.dtb.fetch_acv                            0                       # ITB acv
system.cpu.dtb.fetch_accesses                       0                       # ITB accesses
system.cpu.dtb.read_hits                         1710                       # DTB read hits
system.cpu.dtb.read_misses                         10                       # DTB read misses
system.cpu.dtb.read_acv                             0                       # DTB read access violations
system.cpu.dtb.read_accesses                     1720                       # DTB read accesses
system.cpu.dtb.write_hits                        1209                       # DTB write hits
system.cpu.dtb.write_misses                         2                       # DTB write misses
system.cpu.dtb.write_acv                            0                       # DTB write access violations
system.cpu.dtb.write_accesses                    1211                       # DTB write accesses
system.cpu.dtb.data_hits                         2919                       # DTB hits
system.cpu.dtb.data_misses                         12                       # DTB misses
system.cpu.dtb.data_acv                             0                       # DTB access violations
system.cpu.dtb.data_accesses                     2931                       # DTB accesses
system.cpu.itb.fetch_hits                        8780                       # ITB hits
system.cpu.itb.fetch_misses                        19                       # ITB misses
system.cpu.itb.fetch_acv                            0                       # ITB acv
system.cpu.itb.fetch_accesses                    8799                       # ITB accesses
system.cpu.itb.read_hits                            0                       # DTB read hits
system.cpu.itb.read_misses                          0                       # DTB read misses
system.cpu.itb.read_acv                             0                       # DTB read access violations
system.cpu.itb.read_accesses                        0                       # DTB read accesses
system.cpu.itb.write_hits                           0                       # DTB write hits
system.cpu.itb.write_misses                         0                       # DTB write misses
system.cpu.itb.write_acv                            0                       # DTB write access violations
system.cpu.itb.write_accesses                       0                       # DTB write accesses
system.cpu.itb.data_hits                            0                       # DTB hits
system.cpu.itb.data_misses                          0                       # DTB misses
system.cpu.itb.data_acv                             0                       # DTB access violations
system.cpu.itb.data_accesses                        0                       # DTB accesses
system.cpu.workload.numSyscalls                    10                       # Number of system calls
system.cpu.pwrStateResidencyTicks::ON       221571000                       # Cumulative time (in ticks) in various power states
system.cpu.numCycles                           221571                       # number of cpu cycles simulated
system.cpu.numWorkItemsStarted                      0                       # number of work items this cpu started
system.cpu.numWorkItemsCompleted                    0                       # number of work items this cpu completed
system.cpu.committedInsts                        8767                       # Number of instructions committed
system.cpu.committedOps                          8767                       # Number of ops (including micro ops) committed
system.cpu.num_int_alu_accesses                  8667                       # Number of integer alu accesses
system.cpu.num_fp_alu_accesses                     16                       # Number of float alu accesses
system.cpu.num_vec_alu_accesses                     0                       # Number of vector alu accesses
system.cpu.num_func_calls                         251                       # number of times a function call or return occured
system.cpu.num_conditional_control_insts          903                       # number of instructions that are conditional controls
system.cpu.num_int_insts                         8667                       # number of integer instructions
system.cpu.num_fp_insts                            16                       # number of float instructions
system.cpu.num_vec_insts                            0                       # number of vector instructions
system.cpu.num_int_register_reads               11807                       # number of times the integer registers were read
system.cpu.num_int_register_writes               6404                       # number of times the integer registers were written
system.cpu.num_fp_register_reads                   14                       # number of times the floating registers were read
system.cpu.num_fp_register_writes                   2                       # number of times the floating registers were written
system.cpu.num_vec_register_reads                   0                       # number of times the vector registers were read
system.cpu.num_vec_register_writes                  0                       # number of times the vector registers were written
system.cpu.num_mem_refs                          2931                       # number of memory refs
system.cpu.num_load_insts                        1720                       # Number of load instructions
system.cpu.num_store_insts                       1211                       # Number of store instructions
system.cpu.num_idle_cycles                          0                       # Number of idle cycles
system.cpu.num_busy_cycles                     221571                       # Number of busy cycles
system.cpu.not_idle_fraction                        1                       # Percentage of non-idle cycles
system.cpu.idle_fraction                            0                       # Percentage of idle cycles
system.cpu.Branches                              1241                       # Number of branches fetched
system.cpu.op_class::No_OpClass                    32      0.36%      0.36% # Class of executed instruction
system.cpu.op_class::IntAlu                      5813     66.21%     66.58% # Class of executed instruction
system.cpu.op_class::IntMult                        1      0.01%     66.59% # Class of executed instruction
system.cpu.op_class::IntDiv                         0      0.00%     66.59% # Class of executed instruction
system.cpu.op_class::FloatAdd                       2      0.02%     66.61% # Class of executed instruction
system.cpu.op_class::FloatCmp                       0      0.00%     66.61% # Class of executed instruction
system.cpu.op_class::FloatCvt                       0      0.00%     66.61% # Class of executed instruction
system.cpu.op_class::FloatMult                      0      0.00%     66.61% # Class of executed instruction
system.cpu.op_class::FloatMultAcc                   0      0.00%     66.61% # Class of executed instruction
system.cpu.op_class::FloatDiv                       0      0.00%     66.61% # Class of executed instruction
system.cpu.op_class::FloatMisc                      0      0.00%     66.61% # Class of executed instruction
system.cpu.op_class::FloatSqrt                      0      0.00%     66.61% # Class of executed instruction
system.cpu.op_class::SimdAdd                        0      0.00%     66.61% # Class of executed instruction
system.cpu.op_class::SimdAddAcc                     0      0.00%     66.61% # Class of executed instruction
system.cpu.op_class::SimdAlu                        0      0.00%     66.61% # Class of executed instruction
system.cpu.op_class::SimdCmp                        0      0.00%     66.61% # Class of executed instruction
system.cpu.op_class::SimdCvt                        0      0.00%     66.61% # Class of executed instruction
system.cpu.op_class::SimdMisc                       0      0.00%     66.61% # Class of executed instruction
system.cpu.op_class::SimdMult                       0      0.00%     66.61% # Class of executed instruction
system.cpu.op_class::SimdMultAcc                    0      0.00%     66.61% # Class of executed instruction
system.cpu.op_class::SimdShift                      0      0.00%     66.61% # Class of executed instruction
system.cpu.op_class::SimdShiftAcc                   0      0.00%     66.61% # Class of executed instruction
system.cpu.op_class::SimdSqrt                       0      0.00%     66.61% # Class of executed instruction
system.cpu.op_class::SimdFloatAdd                   0      0.00%     66.61% # Class of executed instruction
system.cpu.op_class::SimdFloatAlu                   0      0.00%     66.61% # Class of executed instruction
system.cpu.op_class::SimdFloatCmp                   0      0.00%     66.61% # Class of executed instruction
system.cpu.op_class::SimdFloatCvt                   0      0.00%     66.61% # Class of executed instruction
system.cpu.op_class::SimdFloatDiv                   0      0.00%     66.61% # Class of executed instruction
system.cpu.op_class::SimdFloatMisc                  0      0.00%     66.61% # Class of executed instruction
system.cpu.op_class::SimdFloatMult                  0      0.00%     66.61% # Class of executed instruction
system.cpu.op_class::SimdFloatMultAcc               0      0.00%     66.61% # Class of executed instruction
system.cpu.op_class::SimdFloatSqrt                  0      0.00%     66.61% # Class of executed instruction
system.cpu.op_class::MemRead                     1719     19.58%     86.19% # Class of executed instruction
system.cpu.op_class::MemWrite                    1198     13.65%     99.84% # Class of executed instruction
system.cpu.op_class::FloatMemRead                   1      0.01%     99.85% # Class of executed instruction
system.cpu.op_class::FloatMemWrite                 13      0.15%    100.00% # Class of executed instruction
system.cpu.op_class::IprAccess                      0      0.00%    100.00% # Class of executed instruction
system.cpu.op_class::InstPrefetch                   0      0.00%    100.00% # Class of executed instruction
system.cpu.op_class::total                       8779                       # Class of executed instruction
system.membus.snoop_filter.tot_requests             0                       # Total number of requests made to the snoop filter.
system.membus.snoop_filter.hit_single_requests            0                       # Number of requests hitting in the snoop filter with a single holder of the requested data.
system.membus.snoop_filter.hit_multi_requests            0                       # Number of requests hitting in the snoop filter with multiple (>1) holders of the requested data.
system.membus.snoop_filter.tot_snoops               0                       # Total number of snoops made to the snoop filter.
system.membus.snoop_filter.hit_single_snoops            0                       # Number of snoops hitting in the snoop filter with a single holder of the requested data.
system.membus.snoop_filter.hit_multi_snoops            0                       # Number of snoops hitting in the snoop filter with multiple (>1) holders of the requested data.
system.membus.pwrStateResidencyTicks::UNDEFINED    221571000                       # Cumulative time (in ticks) in various power states
system.membus.trans_dist::ReadReq                6540                       # Transaction distribution
system.membus.trans_dist::ReadResp               6540                       # Transaction distribution
system.membus.trans_dist::WritebackDirty         6524                       # Transaction distribution
system.membus.pkt_count_system.cache.mem_side::system.mem_ctrl.port        19604                       # Packet count per connected master and slave (bytes)
system.membus.pkt_count::total                  19604                       # Packet count per connected master and slave (bytes)
system.membus.pkt_size_system.cache.mem_side::system.mem_ctrl.port       836096                       # Cumulative packet size per connected master and slave (bytes)
system.membus.pkt_size::total                  836096                       # Cumulative packet size per connected master and slave (bytes)
system.membus.snoops                                0                       # Total snoops (count)
system.membus.snoopTraffic                          0                       # Total snoop traffic (bytes)
system.membus.snoop_fanout::samples              6540                       # Request fanout histogram
system.membus.snoop_fanout::mean                    0                       # Request fanout histogram
system.membus.snoop_fanout::stdev                   0                       # Request fanout histogram
system.membus.snoop_fanout::underflows              0      0.00%      0.00% # Request fanout histogram
system.membus.snoop_fanout::0                    6540    100.00%    100.00% # Request fanout histogram
system.membus.snoop_fanout::overflows               0      0.00%    100.00% # Request fanout histogram
system.membus.snoop_fanout::min_value               0                       # Request fanout histogram
system.membus.snoop_fanout::max_value               0                       # Request fanout histogram
system.membus.snoop_fanout::total                6540                       # Request fanout histogram
system.membus.reqLayer0.occupancy            39160000                       # Layer occupancy (ticks)
system.membus.reqLayer0.utilization              17.7                       # Layer utilization (%)
system.membus.respLayer0.occupancy           33092750                       # Layer occupancy (ticks)
system.membus.respLayer0.utilization             14.9                       # Layer utilization (%)

---------- End Simulation Statistics   ----------
