arrLoopFIFO64

---------- Begin Simulation Statistics ----------
sim_seconds                                  0.818846                       # Number of seconds simulated
sim_ticks                                818846036000                       # Number of ticks simulated
final_tick                               818846036000                       # Number of ticks from beginning of simulation (restored from checkpoints and never reset)
sim_freq                                 1000000000000                       # Frequency of simulated ticks
host_inst_rate                                  14619                       # Simulator instruction rate (inst/s)
host_op_rate                                    14619                       # Simulator op (including micro ops) rate (op/s)
host_tick_rate                              272005584                       # Simulator tick rate (ticks/s)
host_mem_usage                                8991228                       # Number of bytes of host memory used
host_seconds                                  3010.40                       # Real time elapsed on the host
sim_insts                                    44008983                       # Number of instructions simulated
sim_ops                                      44008983                       # Number of ops (including micro ops) simulated



system.cache.pwrStateResidencyTicks::UNDEFINED 818846036000                       # Cumulative time (in ticks) in various power states
system.cache.hits                            25695506                       # Number of hits
system.cache.misses                          32317683                       # Number of misses
system.cache.missLatency::samples            32317683                       # Ticks for misses to the cache
system.cache.missLatency::mean           23542.307999                       # Ticks for misses to the cache
system.cache.missLatency::gmean          23307.815103                       # Ticks for misses to the cache
system.cache.missLatency::stdev           8732.547173                       # Ticks for misses to the cache
system.cache.missLatency::0-65535            32213125     99.68%     99.68% # Ticks for misses to the cache
system.cache.missLatency::65536-131071          93400      0.29%     99.97% # Ticks for misses to the cache
system.cache.missLatency::131072-196607          1612      0.00%     99.97% # Ticks for misses to the cache
system.cache.missLatency::196608-262143          2624      0.01%     99.98% # Ticks for misses to the cache
system.cache.missLatency::262144-327679           360      0.00%     99.98% # Ticks for misses to the cache
system.cache.missLatency::327680-393215           578      0.00%     99.98% # Ticks for misses to the cache
system.cache.missLatency::393216-458751            16      0.00%     99.98% # Ticks for misses to the cache
system.cache.missLatency::458752-524287           225      0.00%     99.98% # Ticks for misses to the cache
system.cache.missLatency::524288-589823           234      0.00%     99.98% # Ticks for misses to the cache
system.cache.missLatency::589824-655359          5504      0.02%    100.00% # Ticks for misses to the cache
system.cache.missLatency::655360-720895             2      0.00%    100.00% # Ticks for misses to the cache
system.cache.missLatency::720896-786431             0      0.00%    100.00% # Ticks for misses to the cache
system.cache.missLatency::786432-851967             3      0.00%    100.00% # Ticks for misses to the cache
system.cache.missLatency::851968-917503             0      0.00%    100.00% # Ticks for misses to the cache
system.cache.missLatency::917504-983039             0      0.00%    100.00% # Ticks for misses to the cache
system.cache.missLatency::983040-1.04858e+06            0      0.00%    100.00% # Ticks for misses to the cache
system.cache.missLatency::total              32317683                       # Ticks for misses to the cache
system.cache.hitRatio                        0.442925                       # The ratio of hits to the total accesses to the cache
system.membus.pkt_count_system.cache.mem_side::system.mem_ctrl.port     96952025                       # Packet count per connected master and slave (bytes)
system.membus.pkt_size_system.cache.mem_side::system.mem_ctrl.port   4136597888                       # Cumulative packet size per connected master and slave (bytes)
