
---------- Begin Simulation Statistics ----------
sim_seconds                                  0.835352                       # Number of seconds simulated
sim_ticks                                835351706000                       # Number of ticks simulated
final_tick                               835351706000                       # Number of ticks from beginning of simulation (restored from checkpoints and never reset)
sim_freq                                 1000000000000                       # Frequency of simulated ticks
host_inst_rate                                 282175                       # Simulator instruction rate (inst/s)
host_op_rate                                   282175                       # Simulator op (including micro ops) rate (op/s)
host_tick_rate                             5356068618                       # Simulator tick rate (ticks/s)
host_mem_usage                                7229624                       # Number of bytes of host memory used
host_seconds                                   155.96                       # Real time elapsed on the host
sim_insts                                    44008983                       # Number of instructions simulated
sim_ops                                      44008983                       # Number of ops (including micro ops) simulated
system.clk_domain.voltage_domain.voltage            1                       # Voltage in Volts
system.clk_domain.clock                          1000                       # Clock period in ticks
system.mem_ctrl.pwrStateResidencyTicks::UNDEFINED 835351706000                       # Cumulative time (in ticks) in various power states
system.mem_ctrl.bytes_read::cpu.inst       1216146368                       # Number of bytes read from this memory
system.mem_ctrl.bytes_read::cpu.data        896110080                       # Number of bytes read from this memory
system.mem_ctrl.bytes_read::total          2112256448                       # Number of bytes read from this memory
system.mem_ctrl.bytes_inst_read::cpu.inst   1216146368                       # Number of instructions bytes read from this memory
system.mem_ctrl.bytes_inst_read::total     1216146368                       # Number of instructions bytes read from this memory
system.mem_ctrl.bytes_written::writebacks   2112248256                       # Number of bytes written to this memory
system.mem_ctrl.bytes_written::total       2112248256                       # Number of bytes written to this memory
system.mem_ctrl.num_reads::cpu.inst          19002287                       # Number of read requests responded to by this memory
system.mem_ctrl.num_reads::cpu.data          14001720                       # Number of read requests responded to by this memory
system.mem_ctrl.num_reads::total             33004007                       # Number of read requests responded to by this memory
system.mem_ctrl.num_writes::writebacks       33003879                       # Number of write requests responded to by this memory
system.mem_ctrl.num_writes::total            33003879                       # Number of write requests responded to by this memory
system.mem_ctrl.bw_read::cpu.inst          1455849505                       # Total read bandwidth from this memory (bytes/s)
system.mem_ctrl.bw_read::cpu.data          1072733884                       # Total read bandwidth from this memory (bytes/s)
system.mem_ctrl.bw_read::total             2528583389                       # Total read bandwidth from this memory (bytes/s)
system.mem_ctrl.bw_inst_read::cpu.inst     1455849505                       # Instruction read bandwidth from this memory (bytes/s)
system.mem_ctrl.bw_inst_read::total        1455849505                       # Instruction read bandwidth from this memory (bytes/s)
system.mem_ctrl.bw_write::writebacks       2528573583                       # Write bandwidth from this memory (bytes/s)
system.mem_ctrl.bw_write::total            2528573583                       # Write bandwidth from this memory (bytes/s)
system.mem_ctrl.bw_total::writebacks       2528573583                       # Total bandwidth to/from this memory (bytes/s)
system.mem_ctrl.bw_total::cpu.inst         1455849505                       # Total bandwidth to/from this memory (bytes/s)
system.mem_ctrl.bw_total::cpu.data         1072733884                       # Total bandwidth to/from this memory (bytes/s)
system.mem_ctrl.bw_total::total            5057156972                       # Total bandwidth to/from this memory (bytes/s)
system.mem_ctrl.readReqs                     33004007                       # Number of read requests accepted
system.mem_ctrl.writeReqs                    33003879                       # Number of write requests accepted
system.mem_ctrl.readBursts                   33004007                       # Number of DRAM read bursts, including those serviced by the write queue
system.mem_ctrl.writeBursts                  33003879                       # Number of DRAM write bursts, including those merged in the write queue
system.mem_ctrl.bytesReadDRAM                 8623232                       # Total number of bytes read from DRAM
system.mem_ctrl.bytesReadWrQ               2103633216                       # Total number of bytes read from write queue
system.mem_ctrl.bytesWritten                  9097920                       # Total number of bytes written to DRAM
system.mem_ctrl.bytesReadSys               2112256448                       # Total read bytes from the system interface side
system.mem_ctrl.bytesWrittenSys            2112248256                       # Total written bytes from the system interface side
system.mem_ctrl.servicedByWrQ                32869269                       # Number of DRAM read bursts serviced by the write queue
system.mem_ctrl.mergedWrBursts               32861705                       # Number of DRAM write bursts merged with an existing one
system.mem_ctrl.neitherReadNorWriteReqs             0                       # Number of requests that are neither read nor write
system.mem_ctrl.perBankRdBursts::0              11537                       # Per bank write bursts
system.mem_ctrl.perBankRdBursts::1               8168                       # Per bank write bursts
system.mem_ctrl.perBankRdBursts::2               9478                       # Per bank write bursts
system.mem_ctrl.perBankRdBursts::3               7979                       # Per bank write bursts
system.mem_ctrl.perBankRdBursts::4               7946                       # Per bank write bursts
system.mem_ctrl.perBankRdBursts::5               7903                       # Per bank write bursts
system.mem_ctrl.perBankRdBursts::6               7906                       # Per bank write bursts
system.mem_ctrl.perBankRdBursts::7               7863                       # Per bank write bursts
system.mem_ctrl.perBankRdBursts::8               8024                       # Per bank write bursts
system.mem_ctrl.perBankRdBursts::9               8262                       # Per bank write bursts
system.mem_ctrl.perBankRdBursts::10              8049                       # Per bank write bursts
system.mem_ctrl.perBankRdBursts::11              8271                       # Per bank write bursts
system.mem_ctrl.perBankRdBursts::12              8306                       # Per bank write bursts
system.mem_ctrl.perBankRdBursts::13              8304                       # Per bank write bursts
system.mem_ctrl.perBankRdBursts::14              8343                       # Per bank write bursts
system.mem_ctrl.perBankRdBursts::15              8399                       # Per bank write bursts
system.mem_ctrl.perBankWrBursts::0              15865                       # Per bank write bursts
system.mem_ctrl.perBankWrBursts::1               8261                       # Per bank write bursts
system.mem_ctrl.perBankWrBursts::2              10950                       # Per bank write bursts
system.mem_ctrl.perBankWrBursts::3               8055                       # Per bank write bursts
system.mem_ctrl.perBankWrBursts::4               8022                       # Per bank write bursts
system.mem_ctrl.perBankWrBursts::5               7986                       # Per bank write bursts
system.mem_ctrl.perBankWrBursts::6               8002                       # Per bank write bursts
system.mem_ctrl.perBankWrBursts::7               7962                       # Per bank write bursts
system.mem_ctrl.perBankWrBursts::8               8154                       # Per bank write bursts
system.mem_ctrl.perBankWrBursts::9               8397                       # Per bank write bursts
system.mem_ctrl.perBankWrBursts::10              8180                       # Per bank write bursts
system.mem_ctrl.perBankWrBursts::11              8409                       # Per bank write bursts
system.mem_ctrl.perBankWrBursts::12              8439                       # Per bank write bursts
system.mem_ctrl.perBankWrBursts::13              8449                       # Per bank write bursts
system.mem_ctrl.perBankWrBursts::14              8480                       # Per bank write bursts
system.mem_ctrl.perBankWrBursts::15              8544                       # Per bank write bursts
system.mem_ctrl.numRdRetry                          0                       # Number of times read queue was full causing retry
system.mem_ctrl.numWrRetry                          0                       # Number of times write queue was full causing retry
system.mem_ctrl.totGap                   835351693000                       # Total gap between requests
system.mem_ctrl.readPktSize::0                      0                       # Read request sizes (log2)
system.mem_ctrl.readPktSize::1                      0                       # Read request sizes (log2)
system.mem_ctrl.readPktSize::2                      0                       # Read request sizes (log2)
system.mem_ctrl.readPktSize::3                      0                       # Read request sizes (log2)
system.mem_ctrl.readPktSize::4                      0                       # Read request sizes (log2)
system.mem_ctrl.readPktSize::5                      0                       # Read request sizes (log2)
system.mem_ctrl.readPktSize::6               33004007                       # Read request sizes (log2)
system.mem_ctrl.writePktSize::0                     0                       # Write request sizes (log2)
system.mem_ctrl.writePktSize::1                     0                       # Write request sizes (log2)
system.mem_ctrl.writePktSize::2                     0                       # Write request sizes (log2)
system.mem_ctrl.writePktSize::3                     0                       # Write request sizes (log2)
system.mem_ctrl.writePktSize::4                     0                       # Write request sizes (log2)
system.mem_ctrl.writePktSize::5                     0                       # Write request sizes (log2)
system.mem_ctrl.writePktSize::6              33003879                       # Write request sizes (log2)
system.mem_ctrl.rdQLenPdf::0                   134738                       # What read queue length does an incoming req see
system.mem_ctrl.rdQLenPdf::1                        0                       # What read queue length does an incoming req see
system.mem_ctrl.rdQLenPdf::2                        0                       # What read queue length does an incoming req see
system.mem_ctrl.rdQLenPdf::3                        0                       # What read queue length does an incoming req see
system.mem_ctrl.rdQLenPdf::4                        0                       # What read queue length does an incoming req see
system.mem_ctrl.rdQLenPdf::5                        0                       # What read queue length does an incoming req see
system.mem_ctrl.rdQLenPdf::6                        0                       # What read queue length does an incoming req see
system.mem_ctrl.rdQLenPdf::7                        0                       # What read queue length does an incoming req see
system.mem_ctrl.rdQLenPdf::8                        0                       # What read queue length does an incoming req see
system.mem_ctrl.rdQLenPdf::9                        0                       # What read queue length does an incoming req see
system.mem_ctrl.rdQLenPdf::10                       0                       # What read queue length does an incoming req see
system.mem_ctrl.rdQLenPdf::11                       0                       # What read queue length does an incoming req see
system.mem_ctrl.rdQLenPdf::12                       0                       # What read queue length does an incoming req see
system.mem_ctrl.rdQLenPdf::13                       0                       # What read queue length does an incoming req see
system.mem_ctrl.rdQLenPdf::14                       0                       # What read queue length does an incoming req see
system.mem_ctrl.rdQLenPdf::15                       0                       # What read queue length does an incoming req see
system.mem_ctrl.rdQLenPdf::16                       0                       # What read queue length does an incoming req see
system.mem_ctrl.rdQLenPdf::17                       0                       # What read queue length does an incoming req see
system.mem_ctrl.rdQLenPdf::18                       0                       # What read queue length does an incoming req see
system.mem_ctrl.rdQLenPdf::19                       0                       # What read queue length does an incoming req see
system.mem_ctrl.rdQLenPdf::20                       0                       # What read queue length does an incoming req see
system.mem_ctrl.rdQLenPdf::21                       0                       # What read queue length does an incoming req see
system.mem_ctrl.rdQLenPdf::22                       0                       # What read queue length does an incoming req see
system.mem_ctrl.rdQLenPdf::23                       0                       # What read queue length does an incoming req see
system.mem_ctrl.rdQLenPdf::24                       0                       # What read queue length does an incoming req see
system.mem_ctrl.rdQLenPdf::25                       0                       # What read queue length does an incoming req see
system.mem_ctrl.rdQLenPdf::26                       0                       # What read queue length does an incoming req see
system.mem_ctrl.rdQLenPdf::27                       0                       # What read queue length does an incoming req see
system.mem_ctrl.rdQLenPdf::28                       0                       # What read queue length does an incoming req see
system.mem_ctrl.rdQLenPdf::29                       0                       # What read queue length does an incoming req see
system.mem_ctrl.rdQLenPdf::30                       0                       # What read queue length does an incoming req see
system.mem_ctrl.rdQLenPdf::31                       0                       # What read queue length does an incoming req see
system.mem_ctrl.wrQLenPdf::0                        1                       # What write queue length does an incoming req see
system.mem_ctrl.wrQLenPdf::1                        1                       # What write queue length does an incoming req see
system.mem_ctrl.wrQLenPdf::2                        1                       # What write queue length does an incoming req see
system.mem_ctrl.wrQLenPdf::3                        1                       # What write queue length does an incoming req see
system.mem_ctrl.wrQLenPdf::4                        1                       # What write queue length does an incoming req see
system.mem_ctrl.wrQLenPdf::5                        1                       # What write queue length does an incoming req see
system.mem_ctrl.wrQLenPdf::6                        1                       # What write queue length does an incoming req see
system.mem_ctrl.wrQLenPdf::7                        1                       # What write queue length does an incoming req see
system.mem_ctrl.wrQLenPdf::8                        1                       # What write queue length does an incoming req see
system.mem_ctrl.wrQLenPdf::9                        1                       # What write queue length does an incoming req see
system.mem_ctrl.wrQLenPdf::10                       1                       # What write queue length does an incoming req see
system.mem_ctrl.wrQLenPdf::11                       1                       # What write queue length does an incoming req see
system.mem_ctrl.wrQLenPdf::12                       1                       # What write queue length does an incoming req see
system.mem_ctrl.wrQLenPdf::13                       1                       # What write queue length does an incoming req see
system.mem_ctrl.wrQLenPdf::14                       1                       # What write queue length does an incoming req see
system.mem_ctrl.wrQLenPdf::15                    6337                       # What write queue length does an incoming req see
system.mem_ctrl.wrQLenPdf::16                    6912                       # What write queue length does an incoming req see
system.mem_ctrl.wrQLenPdf::17                    8008                       # What write queue length does an incoming req see
system.mem_ctrl.wrQLenPdf::18                    9374                       # What write queue length does an incoming req see
system.mem_ctrl.wrQLenPdf::19                    7979                       # What write queue length does an incoming req see
system.mem_ctrl.wrQLenPdf::20                    7979                       # What write queue length does an incoming req see
system.mem_ctrl.wrQLenPdf::21                    7961                       # What write queue length does an incoming req see
system.mem_ctrl.wrQLenPdf::22                    7961                       # What write queue length does an incoming req see
system.mem_ctrl.wrQLenPdf::23                    7976                       # What write queue length does an incoming req see
system.mem_ctrl.wrQLenPdf::24                    7965                       # What write queue length does an incoming req see
system.mem_ctrl.wrQLenPdf::25                    7967                       # What write queue length does an incoming req see
system.mem_ctrl.wrQLenPdf::26                    7962                       # What write queue length does an incoming req see
system.mem_ctrl.wrQLenPdf::27                    7961                       # What write queue length does an incoming req see
system.mem_ctrl.wrQLenPdf::28                    7962                       # What write queue length does an incoming req see
system.mem_ctrl.wrQLenPdf::29                    7972                       # What write queue length does an incoming req see
system.mem_ctrl.wrQLenPdf::30                    7961                       # What write queue length does an incoming req see
system.mem_ctrl.wrQLenPdf::31                    7961                       # What write queue length does an incoming req see
system.mem_ctrl.wrQLenPdf::32                    7961                       # What write queue length does an incoming req see
system.mem_ctrl.wrQLenPdf::33                       0                       # What write queue length does an incoming req see
system.mem_ctrl.wrQLenPdf::34                       0                       # What write queue length does an incoming req see
system.mem_ctrl.wrQLenPdf::35                       0                       # What write queue length does an incoming req see
system.mem_ctrl.wrQLenPdf::36                       0                       # What write queue length does an incoming req see
system.mem_ctrl.wrQLenPdf::37                       0                       # What write queue length does an incoming req see
system.mem_ctrl.wrQLenPdf::38                       0                       # What write queue length does an incoming req see
system.mem_ctrl.wrQLenPdf::39                       0                       # What write queue length does an incoming req see
system.mem_ctrl.wrQLenPdf::40                       0                       # What write queue length does an incoming req see
system.mem_ctrl.wrQLenPdf::41                       0                       # What write queue length does an incoming req see
system.mem_ctrl.wrQLenPdf::42                       0                       # What write queue length does an incoming req see
system.mem_ctrl.wrQLenPdf::43                       0                       # What write queue length does an incoming req see
system.mem_ctrl.wrQLenPdf::44                       0                       # What write queue length does an incoming req see
system.mem_ctrl.wrQLenPdf::45                       0                       # What write queue length does an incoming req see
system.mem_ctrl.wrQLenPdf::46                       0                       # What write queue length does an incoming req see
system.mem_ctrl.wrQLenPdf::47                       0                       # What write queue length does an incoming req see
system.mem_ctrl.wrQLenPdf::48                       0                       # What write queue length does an incoming req see
system.mem_ctrl.wrQLenPdf::49                       0                       # What write queue length does an incoming req see
system.mem_ctrl.wrQLenPdf::50                       0                       # What write queue length does an incoming req see
system.mem_ctrl.wrQLenPdf::51                       0                       # What write queue length does an incoming req see
system.mem_ctrl.wrQLenPdf::52                       0                       # What write queue length does an incoming req see
system.mem_ctrl.wrQLenPdf::53                       0                       # What write queue length does an incoming req see
system.mem_ctrl.wrQLenPdf::54                       0                       # What write queue length does an incoming req see
system.mem_ctrl.wrQLenPdf::55                       0                       # What write queue length does an incoming req see
system.mem_ctrl.wrQLenPdf::56                       0                       # What write queue length does an incoming req see
system.mem_ctrl.wrQLenPdf::57                       0                       # What write queue length does an incoming req see
system.mem_ctrl.wrQLenPdf::58                       0                       # What write queue length does an incoming req see
system.mem_ctrl.wrQLenPdf::59                       0                       # What write queue length does an incoming req see
system.mem_ctrl.wrQLenPdf::60                       0                       # What write queue length does an incoming req see
system.mem_ctrl.wrQLenPdf::61                       0                       # What write queue length does an incoming req see
system.mem_ctrl.wrQLenPdf::62                       0                       # What write queue length does an incoming req see
system.mem_ctrl.wrQLenPdf::63                       0                       # What write queue length does an incoming req see
system.mem_ctrl.bytesPerActivate::samples       115413                       # Bytes accessed per row activation
system.mem_ctrl.bytesPerActivate::mean     153.537782                       # Bytes accessed per row activation
system.mem_ctrl.bytesPerActivate::gmean     96.761618                       # Bytes accessed per row activation
system.mem_ctrl.bytesPerActivate::stdev    236.975010                       # Bytes accessed per row activation
system.mem_ctrl.bytesPerActivate::0-127         77123     66.82%     66.82% # Bytes accessed per row activation
system.mem_ctrl.bytesPerActivate::128-255        26483     22.95%     89.77% # Bytes accessed per row activation
system.mem_ctrl.bytesPerActivate::256-383         3133      2.71%     92.48% # Bytes accessed per row activation
system.mem_ctrl.bytesPerActivate::384-511          435      0.38%     92.86% # Bytes accessed per row activation
system.mem_ctrl.bytesPerActivate::512-639          344      0.30%     93.16% # Bytes accessed per row activation
system.mem_ctrl.bytesPerActivate::640-767          236      0.20%     93.36% # Bytes accessed per row activation
system.mem_ctrl.bytesPerActivate::768-895          302      0.26%     93.63% # Bytes accessed per row activation
system.mem_ctrl.bytesPerActivate::896-1023          550      0.48%     94.10% # Bytes accessed per row activation
system.mem_ctrl.bytesPerActivate::1024-1151         6807      5.90%    100.00% # Bytes accessed per row activation
system.mem_ctrl.bytesPerActivate::total        115413                       # Bytes accessed per row activation
system.mem_ctrl.rdPerTurnAround::samples         7961                       # Reads before turning the bus around for writes
system.mem_ctrl.rdPerTurnAround::mean       16.924507                       # Reads before turning the bus around for writes
system.mem_ctrl.rdPerTurnAround::gmean      16.877389                       # Reads before turning the bus around for writes
system.mem_ctrl.rdPerTurnAround::stdev       1.923200                       # Reads before turning the bus around for writes
system.mem_ctrl.rdPerTurnAround::8-15             613      7.70%      7.70% # Reads before turning the bus around for writes
system.mem_ctrl.rdPerTurnAround::16-23           7347     92.29%     99.99% # Reads before turning the bus around for writes
system.mem_ctrl.rdPerTurnAround::160-167            1      0.01%    100.00% # Reads before turning the bus around for writes
system.mem_ctrl.rdPerTurnAround::total           7961                       # Reads before turning the bus around for writes
system.mem_ctrl.wrPerTurnAround::samples         7961                       # Writes before turning the bus around for reads
system.mem_ctrl.wrPerTurnAround::mean       17.856425                       # Writes before turning the bus around for reads
system.mem_ctrl.wrPerTurnAround::gmean      17.845153                       # Writes before turning the bus around for reads
system.mem_ctrl.wrPerTurnAround::stdev       0.626959                       # Writes before turning the bus around for reads
system.mem_ctrl.wrPerTurnAround::16               354      4.45%      4.45% # Writes before turning the bus around for reads
system.mem_ctrl.wrPerTurnAround::17              1138     14.29%     18.74% # Writes before turning the bus around for reads
system.mem_ctrl.wrPerTurnAround::18              5783     72.64%     91.38% # Writes before turning the bus around for reads
system.mem_ctrl.wrPerTurnAround::19               670      8.42%     99.80% # Writes before turning the bus around for reads
system.mem_ctrl.wrPerTurnAround::20                15      0.19%     99.99% # Writes before turning the bus around for reads
system.mem_ctrl.wrPerTurnAround::21                 1      0.01%    100.00% # Writes before turning the bus around for reads
system.mem_ctrl.wrPerTurnAround::total           7961                       # Writes before turning the bus around for reads
system.mem_ctrl.totQLat                    6315870000                       # Total ticks spent queuing
system.mem_ctrl.totMemAccLat               8842207500                       # Total ticks spent from burst creation until serviced by the DRAM
system.mem_ctrl.totBusLat                   673690000                       # Total ticks spent in databus transfers
system.mem_ctrl.avgQLat                      46875.19                       # Average queueing delay per DRAM burst
system.mem_ctrl.avgBusLat                     5000.00                       # Average bus latency per DRAM burst
system.mem_ctrl.avgMemAccLat                 65625.19                       # Average memory access latency per DRAM burst
system.mem_ctrl.avgRdBW                         10.32                       # Average DRAM read bandwidth in MiByte/s
system.mem_ctrl.avgWrBW                         10.89                       # Average achieved write bandwidth in MiByte/s
system.mem_ctrl.avgRdBWSys                    2528.58                       # Average system read bandwidth in MiByte/s
system.mem_ctrl.avgWrBWSys                    2528.57                       # Average system write bandwidth in MiByte/s
system.mem_ctrl.peakBW                       12800.00                       # Theoretical peak bandwidth in MiByte/s
system.mem_ctrl.busUtil                          0.17                       # Data bus utilization in percentage
system.mem_ctrl.busUtilRead                      0.08                       # Data bus utilization in percentage for reads
system.mem_ctrl.busUtilWrite                     0.09                       # Data bus utilization in percentage for writes
system.mem_ctrl.avgRdQLen                        1.00                       # Average read queue length when enqueuing
system.mem_ctrl.avgWrQLen                       24.70                       # Average write queue length when enqueuing
system.mem_ctrl.readRowHits                     31085                       # Number of row buffer hits during reads
system.mem_ctrl.writeRowHits                   130390                       # Number of row buffer hits during writes
system.mem_ctrl.readRowHitRate                  23.07                       # Row buffer hit rate for reads
system.mem_ctrl.writeRowHitRate                 91.71                       # Row buffer hit rate for writes
system.mem_ctrl.avgGap                       12655.33                       # Average gap between requests
system.mem_ctrl.pageHitRate                     58.31                       # Row buffer hit rate, read and write combined
system.mem_ctrl_0.actEnergy                 428392860                       # Energy for activate commands per rank (pJ)
system.mem_ctrl_0.preEnergy                 227684820                       # Energy for precharge commands per rank (pJ)
system.mem_ctrl_0.readEnergy                491089200                       # Energy for read commands per rank (pJ)
system.mem_ctrl_0.writeEnergy               392037660                       # Energy for write commands per rank (pJ)
system.mem_ctrl_0.refreshEnergy          38809598880.000008                       # Energy for refresh commands per rank (pJ)
system.mem_ctrl_0.actBackEnergy            9757486290                       # Energy for active background per rank (pJ)
system.mem_ctrl_0.preBackEnergy            1303204800                       # Energy for precharge background per rank (pJ)
system.mem_ctrl_0.actPowerDownEnergy     102835494930                       # Energy for active power-down per rank (pJ)
system.mem_ctrl_0.prePowerDownEnergy      75520238400                       # Energy for precharge power-down per rank (pJ)
system.mem_ctrl_0.selfRefreshEnergy       96648624900                       # Energy for self refresh per rank (pJ)
system.mem_ctrl_0.totalEnergy            326483644470                       # Total energy per rank (pJ)
system.mem_ctrl_0.averagePower             390.833755                       # Core power per rank (mW)
system.mem_ctrl_0.totalIdleTime          810407894500                       # Total Idle time Per DRAM Rank
system.mem_ctrl_0.memoryStateTime::IDLE    1946041750                       # Time in different power states
system.mem_ctrl_0.memoryStateTime::REF    16454630000                       # Time in different power states
system.mem_ctrl_0.memoryStateTime::SREF  388219620250                       # Time in different power states
system.mem_ctrl_0.memoryStateTime::PRE_PDN 196663340000                       # Time in different power states
system.mem_ctrl_0.memoryStateTime::ACT     6543097250                       # Time in different power states
system.mem_ctrl_0.memoryStateTime::ACT_PDN 225524976750                       # Time in different power states
system.mem_ctrl_1.actEnergy                 395691660                       # Energy for activate commands per rank (pJ)
system.mem_ctrl_1.preEnergy                 210307515                       # Energy for precharge commands per rank (pJ)
system.mem_ctrl_1.readEnergy                470940120                       # Energy for read commands per rank (pJ)
system.mem_ctrl_1.writeEnergy               350011440                       # Energy for write commands per rank (pJ)
system.mem_ctrl_1.refreshEnergy          39830515920.000008                       # Energy for refresh commands per rank (pJ)
system.mem_ctrl_1.actBackEnergy           10878357090                       # Energy for active background per rank (pJ)
system.mem_ctrl_1.preBackEnergy            1365657120                       # Energy for precharge background per rank (pJ)
system.mem_ctrl_1.actPowerDownEnergy     102742681260                       # Energy for active power-down per rank (pJ)
system.mem_ctrl_1.prePowerDownEnergy      77685755520                       # Energy for precharge power-down per rank (pJ)
system.mem_ctrl_1.selfRefreshEnergy       95093295255                       # Energy for self refresh per rank (pJ)
system.mem_ctrl_1.totalEnergy            329134572420                       # Total energy per rank (pJ)
system.mem_ctrl_1.averagePower             394.007183                       # Core power per rank (mW)
system.mem_ctrl_1.totalIdleTime          807696021000                       # Total Idle time Per DRAM Rank
system.mem_ctrl_1.memoryStateTime::IDLE    2127354000                       # Time in different power states
system.mem_ctrl_1.memoryStateTime::REF    16889682000                       # Time in different power states
system.mem_ctrl_1.memoryStateTime::SREF  380070956000                       # Time in different power states
system.mem_ctrl_1.memoryStateTime::PRE_PDN 202302478250                       # Time in different power states
system.mem_ctrl_1.memoryStateTime::ACT     8638649000                       # Time in different power states
system.mem_ctrl_1.memoryStateTime::ACT_PDN 225322586750                       # Time in different power states
system.pwrStateResidencyTicks::UNDEFINED 835351706000                       # Cumulative time (in ticks) in various power states
system.cache.pwrStateResidencyTicks::UNDEFINED 835351706000                       # Cumulative time (in ticks) in various power states
system.cache.hits                            25009182                       # Number of hits
system.cache.misses                          33004007                       # Number of misses
system.cache.missLatency::samples            33004007                       # Ticks for misses to the cache
system.cache.missLatency::mean           23552.852749                       # Ticks for misses to the cache
system.cache.missLatency::gmean          23323.420732                       # Ticks for misses to the cache
system.cache.missLatency::stdev           8385.870737                       # Ticks for misses to the cache
system.cache.missLatency::0-65535            32898148     99.68%     99.68% # Ticks for misses to the cache
system.cache.missLatency::65536-131071          92176      0.28%     99.96% # Ticks for misses to the cache
system.cache.missLatency::131072-196607          1575      0.00%     99.96% # Ticks for misses to the cache
system.cache.missLatency::196608-262143          6706      0.02%     99.98% # Ticks for misses to the cache
system.cache.missLatency::262144-327679           161      0.00%     99.98% # Ticks for misses to the cache
system.cache.missLatency::327680-393215           140      0.00%     99.98% # Ticks for misses to the cache
system.cache.missLatency::393216-458751             2      0.00%     99.98% # Ticks for misses to the cache
system.cache.missLatency::458752-524287            38      0.00%     99.98% # Ticks for misses to the cache
system.cache.missLatency::524288-589823             0      0.00%     99.98% # Ticks for misses to the cache
system.cache.missLatency::589824-655359          5061      0.02%    100.00% # Ticks for misses to the cache
system.cache.missLatency::655360-720895             0      0.00%    100.00% # Ticks for misses to the cache
system.cache.missLatency::720896-786431             0      0.00%    100.00% # Ticks for misses to the cache
system.cache.missLatency::786432-851967             0      0.00%    100.00% # Ticks for misses to the cache
system.cache.missLatency::851968-917503             0      0.00%    100.00% # Ticks for misses to the cache
system.cache.missLatency::917504-983039             0      0.00%    100.00% # Ticks for misses to the cache
system.cache.missLatency::983040-1.04858e+06            0      0.00%    100.00% # Ticks for misses to the cache
system.cache.missLatency::total              33004007                       # Ticks for misses to the cache
system.cache.hitRatio                        0.431095                       # The ratio of hits to the total accesses to the cache
system.cpu.dtb.fetch_hits                           0                       # ITB hits
system.cpu.dtb.fetch_misses                         0                       # ITB misses
system.cpu.dtb.fetch_acv                            0                       # ITB acv
system.cpu.dtb.fetch_accesses                       0                       # ITB accesses
system.cpu.dtb.read_hits                     10001315                       # DTB read hits
system.cpu.dtb.read_misses                        516                       # DTB read misses
system.cpu.dtb.read_acv                             0                       # DTB read access violations
system.cpu.dtb.read_accesses                 10001831                       # DTB read accesses
system.cpu.dtb.write_hits                     4001460                       # DTB write hits
system.cpu.dtb.write_misses                       915                       # DTB write misses
system.cpu.dtb.write_acv                            0                       # DTB write access violations
system.cpu.dtb.write_accesses                 4002375                       # DTB write accesses
system.cpu.dtb.data_hits                     14002775                       # DTB hits
system.cpu.dtb.data_misses                       1431                       # DTB misses
system.cpu.dtb.data_acv                             0                       # DTB access violations
system.cpu.dtb.data_accesses                 14004206                       # DTB accesses
system.cpu.itb.fetch_hits                    44010415                       # ITB hits
system.cpu.itb.fetch_misses                        19                       # ITB misses
system.cpu.itb.fetch_acv                            0                       # ITB acv
system.cpu.itb.fetch_accesses                44010434                       # ITB accesses
system.cpu.itb.read_hits                            0                       # DTB read hits
system.cpu.itb.read_misses                          0                       # DTB read misses
system.cpu.itb.read_acv                             0                       # DTB read access violations
system.cpu.itb.read_accesses                        0                       # DTB read accesses
system.cpu.itb.write_hits                           0                       # DTB write hits
system.cpu.itb.write_misses                         0                       # DTB write misses
system.cpu.itb.write_acv                            0                       # DTB write access violations
system.cpu.itb.write_accesses                       0                       # DTB write accesses
system.cpu.itb.data_hits                            0                       # DTB hits
system.cpu.itb.data_misses                          0                       # DTB misses
system.cpu.itb.data_acv                             0                       # DTB access violations
system.cpu.itb.data_accesses                        0                       # DTB accesses
system.cpu.workload.numSyscalls                    10                       # Number of system calls
system.cpu.pwrStateResidencyTicks::ON    835351706000                       # Cumulative time (in ticks) in various power states
system.cpu.numCycles                        835351706                       # number of cpu cycles simulated
system.cpu.numWorkItemsStarted                      0                       # number of work items this cpu started
system.cpu.numWorkItemsCompleted                    0                       # number of work items this cpu completed
system.cpu.committedInsts                    44008983                       # Number of instructions committed
system.cpu.committedOps                      44008983                       # Number of ops (including micro ops) committed
system.cpu.num_int_alu_accesses              42010330                       # Number of integer alu accesses
system.cpu.num_fp_alu_accesses                     16                       # Number of float alu accesses
system.cpu.num_vec_alu_accesses                     0                       # Number of vector alu accesses
system.cpu.num_func_calls                         231                       # number of times a function call or return occured
system.cpu.num_conditional_control_insts      2001276                       # number of instructions that are conditional controls
system.cpu.num_int_insts                     42010330                       # number of integer instructions
system.cpu.num_fp_insts                            16                       # number of float instructions
system.cpu.num_vec_insts                            0                       # number of vector instructions
system.cpu.num_int_register_reads            53014129                       # number of times the integer registers were read
system.cpu.num_int_register_writes           36006038                       # number of times the integer registers were written
system.cpu.num_fp_register_reads                   14                       # number of times the floating registers were read
system.cpu.num_fp_register_writes                   2                       # number of times the floating registers were written
system.cpu.num_vec_register_reads                   0                       # number of times the vector registers were read
system.cpu.num_vec_register_writes                  0                       # number of times the vector registers were written
system.cpu.num_mem_refs                      14004206                       # number of memory refs
system.cpu.num_load_insts                    10001831                       # Number of load instructions
system.cpu.num_store_insts                    4002375                       # Number of store instructions
system.cpu.num_idle_cycles                          0                       # Number of idle cycles
system.cpu.num_busy_cycles                  835351706                       # Number of busy cycles
system.cpu.not_idle_fraction                        1                       # Percentage of non-idle cycles
system.cpu.idle_fraction                            0                       # Percentage of idle cycles
system.cpu.Branches                           4001572                       # Number of branches fetched
system.cpu.op_class::No_OpClass                    22      0.00%      0.00% # Class of executed instruction
system.cpu.op_class::IntAlu                  30006176     68.18%     68.18% # Class of executed instruction
system.cpu.op_class::IntMult                        8      0.00%     68.18% # Class of executed instruction
system.cpu.op_class::IntDiv                         0      0.00%     68.18% # Class of executed instruction
system.cpu.op_class::FloatAdd                       2      0.00%     68.18% # Class of executed instruction
system.cpu.op_class::FloatCmp                       0      0.00%     68.18% # Class of executed instruction
system.cpu.op_class::FloatCvt                       0      0.00%     68.18% # Class of executed instruction
system.cpu.op_class::FloatMult                      0      0.00%     68.18% # Class of executed instruction
system.cpu.op_class::FloatMultAcc                   0      0.00%     68.18% # Class of executed instruction
system.cpu.op_class::FloatDiv                       0      0.00%     68.18% # Class of executed instruction
system.cpu.op_class::FloatMisc                      0      0.00%     68.18% # Class of executed instruction
system.cpu.op_class::FloatSqrt                      0      0.00%     68.18% # Class of executed instruction
system.cpu.op_class::SimdAdd                        0      0.00%     68.18% # Class of executed instruction
system.cpu.op_class::SimdAddAcc                     0      0.00%     68.18% # Class of executed instruction
system.cpu.op_class::SimdAlu                        0      0.00%     68.18% # Class of executed instruction
system.cpu.op_class::SimdCmp                        0      0.00%     68.18% # Class of executed instruction
system.cpu.op_class::SimdCvt                        0      0.00%     68.18% # Class of executed instruction
system.cpu.op_class::SimdMisc                       0      0.00%     68.18% # Class of executed instruction
system.cpu.op_class::SimdMult                       0      0.00%     68.18% # Class of executed instruction
system.cpu.op_class::SimdMultAcc                    0      0.00%     68.18% # Class of executed instruction
system.cpu.op_class::SimdShift                      0      0.00%     68.18% # Class of executed instruction
system.cpu.op_class::SimdShiftAcc                   0      0.00%     68.18% # Class of executed instruction
system.cpu.op_class::SimdSqrt                       0      0.00%     68.18% # Class of executed instruction
system.cpu.op_class::SimdFloatAdd                   0      0.00%     68.18% # Class of executed instruction
system.cpu.op_class::SimdFloatAlu                   0      0.00%     68.18% # Class of executed instruction
system.cpu.op_class::SimdFloatCmp                   0      0.00%     68.18% # Class of executed instruction
system.cpu.op_class::SimdFloatCvt                   0      0.00%     68.18% # Class of executed instruction
system.cpu.op_class::SimdFloatDiv                   0      0.00%     68.18% # Class of executed instruction
system.cpu.op_class::SimdFloatMisc                  0      0.00%     68.18% # Class of executed instruction
system.cpu.op_class::SimdFloatMult                  0      0.00%     68.18% # Class of executed instruction
system.cpu.op_class::SimdFloatMultAcc               0      0.00%     68.18% # Class of executed instruction
system.cpu.op_class::SimdFloatSqrt                  0      0.00%     68.18% # Class of executed instruction
system.cpu.op_class::MemRead                 10001830     22.73%     90.91% # Class of executed instruction
system.cpu.op_class::MemWrite                 4002362      9.09%    100.00% # Class of executed instruction
system.cpu.op_class::FloatMemRead                   1      0.00%    100.00% # Class of executed instruction
system.cpu.op_class::FloatMemWrite                 13      0.00%    100.00% # Class of executed instruction
system.cpu.op_class::IprAccess                      0      0.00%    100.00% # Class of executed instruction
system.cpu.op_class::InstPrefetch                   0      0.00%    100.00% # Class of executed instruction
system.cpu.op_class::total                   44010414                       # Class of executed instruction
system.membus.snoop_filter.tot_requests             0                       # Total number of requests made to the snoop filter.
system.membus.snoop_filter.hit_single_requests            0                       # Number of requests hitting in the snoop filter with a single holder of the requested data.
system.membus.snoop_filter.hit_multi_requests            0                       # Number of requests hitting in the snoop filter with multiple (>1) holders of the requested data.
system.membus.snoop_filter.tot_snoops               0                       # Total number of snoops made to the snoop filter.
system.membus.snoop_filter.hit_single_snoops            0                       # Number of snoops hitting in the snoop filter with a single holder of the requested data.
system.membus.snoop_filter.hit_multi_snoops            0                       # Number of snoops hitting in the snoop filter with multiple (>1) holders of the requested data.
system.membus.pwrStateResidencyTicks::UNDEFINED 835351706000                       # Cumulative time (in ticks) in various power states
system.membus.trans_dist::ReadReq            33004007                       # Transaction distribution
system.membus.trans_dist::ReadResp           33004007                       # Transaction distribution
system.membus.trans_dist::WritebackDirty     33003879                       # Transaction distribution
system.membus.pkt_count_system.cache.mem_side::system.mem_ctrl.port     99011893                       # Packet count per connected master and slave (bytes)
system.membus.pkt_count::total               99011893                       # Packet count per connected master and slave (bytes)
system.membus.pkt_size_system.cache.mem_side::system.mem_ctrl.port   4224504704                       # Cumulative packet size per connected master and slave (bytes)
system.membus.pkt_size::total              4224504704                       # Cumulative packet size per connected master and slave (bytes)
system.membus.snoops                                0                       # Total snoops (count)
system.membus.snoopTraffic                          0                       # Total snoop traffic (bytes)
system.membus.snoop_fanout::samples          33004007                       # Request fanout histogram
system.membus.snoop_fanout::mean                    0                       # Request fanout histogram
system.membus.snoop_fanout::stdev                   0                       # Request fanout histogram
system.membus.snoop_fanout::underflows              0      0.00%      0.00% # Request fanout histogram
system.membus.snoop_fanout::0                33004007    100.00%    100.00% # Request fanout histogram
system.membus.snoop_fanout::overflows               0      0.00%    100.00% # Request fanout histogram
system.membus.snoop_fanout::min_value               0                       # Request fanout histogram
system.membus.snoop_fanout::max_value               0                       # Request fanout histogram
system.membus.snoop_fanout::total            33004007                       # Request fanout histogram
system.membus.reqLayer0.occupancy        198023402000                       # Layer occupancy (ticks)
system.membus.reqLayer0.utilization              23.7                       # Layer utilization (%)
system.membus.respLayer0.occupancy       165078948500                       # Layer occupancy (ticks)
system.membus.respLayer0.utilization             19.8                       # Layer utilization (%)

---------- End Simulation Statistics   ----------
