
---------- Begin Simulation Statistics ----------
sim_seconds                                  0.066395                       # Number of seconds simulated
sim_ticks                                 66394851000                       # Number of ticks simulated
final_tick                                66394851000                       # Number of ticks from beginning of simulation (restored from checkpoints and never reset)
sim_freq                                 1000000000000                       # Frequency of simulated ticks
host_inst_rate                                 514544                       # Simulator instruction rate (inst/s)
host_op_rate                                   514544                       # Simulator op (including micro ops) rate (op/s)
host_tick_rate                              776275297                       # Simulator tick rate (ticks/s)
host_mem_usage                                6712476                       # Number of bytes of host memory used
host_seconds                                    85.53                       # Real time elapsed on the host
sim_insts                                    44008983                       # Number of instructions simulated
sim_ops                                      44008983                       # Number of ops (including micro ops) simulated
system.clk_domain.voltage_domain.voltage            1                       # Voltage in Volts
system.clk_domain.clock                          1000                       # Clock period in ticks
system.mem_ctrl.pwrStateResidencyTicks::UNDEFINED  66394851000                       # Cumulative time (in ticks) in various power states
system.mem_ctrl.bytes_read::cpu.inst           147456                       # Number of bytes read from this memory
system.mem_ctrl.bytes_read::cpu.data          8135232                       # Number of bytes read from this memory
system.mem_ctrl.bytes_read::total             8282688                       # Number of bytes read from this memory
system.mem_ctrl.bytes_inst_read::cpu.inst       147456                       # Number of instructions bytes read from this memory
system.mem_ctrl.bytes_inst_read::total         147456                       # Number of instructions bytes read from this memory
system.mem_ctrl.bytes_written::writebacks      8274496                       # Number of bytes written to this memory
system.mem_ctrl.bytes_written::total          8274496                       # Number of bytes written to this memory
system.mem_ctrl.num_reads::cpu.inst              2304                       # Number of read requests responded to by this memory
system.mem_ctrl.num_reads::cpu.data            127113                       # Number of read requests responded to by this memory
system.mem_ctrl.num_reads::total               129417                       # Number of read requests responded to by this memory
system.mem_ctrl.num_writes::writebacks         129289                       # Number of write requests responded to by this memory
system.mem_ctrl.num_writes::total              129289                       # Number of write requests responded to by this memory
system.mem_ctrl.bw_read::cpu.inst             2220895                       # Total read bandwidth from this memory (bytes/s)
system.mem_ctrl.bw_read::cpu.data           122528056                       # Total read bandwidth from this memory (bytes/s)
system.mem_ctrl.bw_read::total              124748951                       # Total read bandwidth from this memory (bytes/s)
system.mem_ctrl.bw_inst_read::cpu.inst        2220895                       # Instruction read bandwidth from this memory (bytes/s)
system.mem_ctrl.bw_inst_read::total           2220895                       # Instruction read bandwidth from this memory (bytes/s)
system.mem_ctrl.bw_write::writebacks        124625568                       # Write bandwidth from this memory (bytes/s)
system.mem_ctrl.bw_write::total             124625568                       # Write bandwidth from this memory (bytes/s)
system.mem_ctrl.bw_total::writebacks        124625568                       # Total bandwidth to/from this memory (bytes/s)
system.mem_ctrl.bw_total::cpu.inst            2220895                       # Total bandwidth to/from this memory (bytes/s)
system.mem_ctrl.bw_total::cpu.data          122528056                       # Total bandwidth to/from this memory (bytes/s)
system.mem_ctrl.bw_total::total             249374519                       # Total bandwidth to/from this memory (bytes/s)
system.mem_ctrl.readReqs                       129417                       # Number of read requests accepted
system.mem_ctrl.writeReqs                      129289                       # Number of write requests accepted
system.mem_ctrl.readBursts                     129417                       # Number of DRAM read bursts, including those serviced by the write queue
system.mem_ctrl.writeBursts                    129289                       # Number of DRAM write bursts, including those merged in the write queue
system.mem_ctrl.bytesReadDRAM                 8074496                       # Total number of bytes read from DRAM
system.mem_ctrl.bytesReadWrQ                   208192                       # Total number of bytes read from write queue
system.mem_ctrl.bytesWritten                  8213824                       # Total number of bytes written to DRAM
system.mem_ctrl.bytesReadSys                  8282688                       # Total read bytes from the system interface side
system.mem_ctrl.bytesWrittenSys               8274496                       # Total written bytes from the system interface side
system.mem_ctrl.servicedByWrQ                    3253                       # Number of DRAM read bursts serviced by the write queue
system.mem_ctrl.mergedWrBursts                    927                       # Number of DRAM write bursts merged with an existing one
system.mem_ctrl.neitherReadNorWriteReqs             0                       # Number of requests that are neither read nor write
system.mem_ctrl.perBankRdBursts::0               8051                       # Per bank write bursts
system.mem_ctrl.perBankRdBursts::1               7989                       # Per bank write bursts
system.mem_ctrl.perBankRdBursts::2               7960                       # Per bank write bursts
system.mem_ctrl.perBankRdBursts::3               7815                       # Per bank write bursts
system.mem_ctrl.perBankRdBursts::4               7787                       # Per bank write bursts
system.mem_ctrl.perBankRdBursts::5               7743                       # Per bank write bursts
system.mem_ctrl.perBankRdBursts::6               7745                       # Per bank write bursts
system.mem_ctrl.perBankRdBursts::7               7714                       # Per bank write bursts
system.mem_ctrl.perBankRdBursts::8               7715                       # Per bank write bursts
system.mem_ctrl.perBankRdBursts::9               7974                       # Per bank write bursts
system.mem_ctrl.perBankRdBursts::10              7716                       # Per bank write bursts
system.mem_ctrl.perBankRdBursts::11              7981                       # Per bank write bursts
system.mem_ctrl.perBankRdBursts::12              7973                       # Per bank write bursts
system.mem_ctrl.perBankRdBursts::13              7993                       # Per bank write bursts
system.mem_ctrl.perBankRdBursts::14              8018                       # Per bank write bursts
system.mem_ctrl.perBankRdBursts::15              7990                       # Per bank write bursts
system.mem_ctrl.perBankWrBursts::0               9344                       # Per bank write bursts
system.mem_ctrl.perBankWrBursts::1               8028                       # Per bank write bursts
system.mem_ctrl.perBankWrBursts::2               8450                       # Per bank write bursts
system.mem_ctrl.perBankWrBursts::3               7834                       # Per bank write bursts
system.mem_ctrl.perBankWrBursts::4               7811                       # Per bank write bursts
system.mem_ctrl.perBankWrBursts::5               7778                       # Per bank write bursts
system.mem_ctrl.perBankWrBursts::6               7770                       # Per bank write bursts
system.mem_ctrl.perBankWrBursts::7               7744                       # Per bank write bursts
system.mem_ctrl.perBankWrBursts::8               7747                       # Per bank write bursts
system.mem_ctrl.perBankWrBursts::9               7996                       # Per bank write bursts
system.mem_ctrl.perBankWrBursts::10              7750                       # Per bank write bursts
system.mem_ctrl.perBankWrBursts::11              8003                       # Per bank write bursts
system.mem_ctrl.perBankWrBursts::12              8009                       # Per bank write bursts
system.mem_ctrl.perBankWrBursts::13              8014                       # Per bank write bursts
system.mem_ctrl.perBankWrBursts::14              8038                       # Per bank write bursts
system.mem_ctrl.perBankWrBursts::15              8025                       # Per bank write bursts
system.mem_ctrl.numRdRetry                          0                       # Number of times read queue was full causing retry
system.mem_ctrl.numWrRetry                          0                       # Number of times write queue was full causing retry
system.mem_ctrl.totGap                    66394838000                       # Total gap between requests
system.mem_ctrl.readPktSize::0                      0                       # Read request sizes (log2)
system.mem_ctrl.readPktSize::1                      0                       # Read request sizes (log2)
system.mem_ctrl.readPktSize::2                      0                       # Read request sizes (log2)
system.mem_ctrl.readPktSize::3                      0                       # Read request sizes (log2)
system.mem_ctrl.readPktSize::4                      0                       # Read request sizes (log2)
system.mem_ctrl.readPktSize::5                      0                       # Read request sizes (log2)
system.mem_ctrl.readPktSize::6                 129417                       # Read request sizes (log2)
system.mem_ctrl.writePktSize::0                     0                       # Write request sizes (log2)
system.mem_ctrl.writePktSize::1                     0                       # Write request sizes (log2)
system.mem_ctrl.writePktSize::2                     0                       # Write request sizes (log2)
system.mem_ctrl.writePktSize::3                     0                       # Write request sizes (log2)
system.mem_ctrl.writePktSize::4                     0                       # Write request sizes (log2)
system.mem_ctrl.writePktSize::5                     0                       # Write request sizes (log2)
system.mem_ctrl.writePktSize::6                129289                       # Write request sizes (log2)
system.mem_ctrl.rdQLenPdf::0                   126164                       # What read queue length does an incoming req see
system.mem_ctrl.rdQLenPdf::1                        0                       # What read queue length does an incoming req see
system.mem_ctrl.rdQLenPdf::2                        0                       # What read queue length does an incoming req see
system.mem_ctrl.rdQLenPdf::3                        0                       # What read queue length does an incoming req see
system.mem_ctrl.rdQLenPdf::4                        0                       # What read queue length does an incoming req see
system.mem_ctrl.rdQLenPdf::5                        0                       # What read queue length does an incoming req see
system.mem_ctrl.rdQLenPdf::6                        0                       # What read queue length does an incoming req see
system.mem_ctrl.rdQLenPdf::7                        0                       # What read queue length does an incoming req see
system.mem_ctrl.rdQLenPdf::8                        0                       # What read queue length does an incoming req see
system.mem_ctrl.rdQLenPdf::9                        0                       # What read queue length does an incoming req see
system.mem_ctrl.rdQLenPdf::10                       0                       # What read queue length does an incoming req see
system.mem_ctrl.rdQLenPdf::11                       0                       # What read queue length does an incoming req see
system.mem_ctrl.rdQLenPdf::12                       0                       # What read queue length does an incoming req see
system.mem_ctrl.rdQLenPdf::13                       0                       # What read queue length does an incoming req see
system.mem_ctrl.rdQLenPdf::14                       0                       # What read queue length does an incoming req see
system.mem_ctrl.rdQLenPdf::15                       0                       # What read queue length does an incoming req see
system.mem_ctrl.rdQLenPdf::16                       0                       # What read queue length does an incoming req see
system.mem_ctrl.rdQLenPdf::17                       0                       # What read queue length does an incoming req see
system.mem_ctrl.rdQLenPdf::18                       0                       # What read queue length does an incoming req see
system.mem_ctrl.rdQLenPdf::19                       0                       # What read queue length does an incoming req see
system.mem_ctrl.rdQLenPdf::20                       0                       # What read queue length does an incoming req see
system.mem_ctrl.rdQLenPdf::21                       0                       # What read queue length does an incoming req see
system.mem_ctrl.rdQLenPdf::22                       0                       # What read queue length does an incoming req see
system.mem_ctrl.rdQLenPdf::23                       0                       # What read queue length does an incoming req see
system.mem_ctrl.rdQLenPdf::24                       0                       # What read queue length does an incoming req see
system.mem_ctrl.rdQLenPdf::25                       0                       # What read queue length does an incoming req see
system.mem_ctrl.rdQLenPdf::26                       0                       # What read queue length does an incoming req see
system.mem_ctrl.rdQLenPdf::27                       0                       # What read queue length does an incoming req see
system.mem_ctrl.rdQLenPdf::28                       0                       # What read queue length does an incoming req see
system.mem_ctrl.rdQLenPdf::29                       0                       # What read queue length does an incoming req see
system.mem_ctrl.rdQLenPdf::30                       0                       # What read queue length does an incoming req see
system.mem_ctrl.rdQLenPdf::31                       0                       # What read queue length does an incoming req see
system.mem_ctrl.wrQLenPdf::0                        1                       # What write queue length does an incoming req see
system.mem_ctrl.wrQLenPdf::1                        1                       # What write queue length does an incoming req see
system.mem_ctrl.wrQLenPdf::2                        1                       # What write queue length does an incoming req see
system.mem_ctrl.wrQLenPdf::3                        1                       # What write queue length does an incoming req see
system.mem_ctrl.wrQLenPdf::4                        1                       # What write queue length does an incoming req see
system.mem_ctrl.wrQLenPdf::5                        1                       # What write queue length does an incoming req see
system.mem_ctrl.wrQLenPdf::6                        1                       # What write queue length does an incoming req see
system.mem_ctrl.wrQLenPdf::7                        1                       # What write queue length does an incoming req see
system.mem_ctrl.wrQLenPdf::8                        1                       # What write queue length does an incoming req see
system.mem_ctrl.wrQLenPdf::9                        1                       # What write queue length does an incoming req see
system.mem_ctrl.wrQLenPdf::10                       1                       # What write queue length does an incoming req see
system.mem_ctrl.wrQLenPdf::11                       1                       # What write queue length does an incoming req see
system.mem_ctrl.wrQLenPdf::12                       1                       # What write queue length does an incoming req see
system.mem_ctrl.wrQLenPdf::13                       1                       # What write queue length does an incoming req see
system.mem_ctrl.wrQLenPdf::14                       1                       # What write queue length does an incoming req see
system.mem_ctrl.wrQLenPdf::15                    7029                       # What write queue length does an incoming req see
system.mem_ctrl.wrQLenPdf::16                    7032                       # What write queue length does an incoming req see
system.mem_ctrl.wrQLenPdf::17                    7134                       # What write queue length does an incoming req see
system.mem_ctrl.wrQLenPdf::18                    7138                       # What write queue length does an incoming req see
system.mem_ctrl.wrQLenPdf::19                    7139                       # What write queue length does an incoming req see
system.mem_ctrl.wrQLenPdf::20                    7137                       # What write queue length does an incoming req see
system.mem_ctrl.wrQLenPdf::21                    7138                       # What write queue length does an incoming req see
system.mem_ctrl.wrQLenPdf::22                    7145                       # What write queue length does an incoming req see
system.mem_ctrl.wrQLenPdf::23                    7206                       # What write queue length does an incoming req see
system.mem_ctrl.wrQLenPdf::24                    7147                       # What write queue length does an incoming req see
system.mem_ctrl.wrQLenPdf::25                    7138                       # What write queue length does an incoming req see
system.mem_ctrl.wrQLenPdf::26                    7144                       # What write queue length does an incoming req see
system.mem_ctrl.wrQLenPdf::27                    7137                       # What write queue length does an incoming req see
system.mem_ctrl.wrQLenPdf::28                    7136                       # What write queue length does an incoming req see
system.mem_ctrl.wrQLenPdf::29                    7136                       # What write queue length does an incoming req see
system.mem_ctrl.wrQLenPdf::30                    7136                       # What write queue length does an incoming req see
system.mem_ctrl.wrQLenPdf::31                    7136                       # What write queue length does an incoming req see
system.mem_ctrl.wrQLenPdf::32                    7136                       # What write queue length does an incoming req see
system.mem_ctrl.wrQLenPdf::33                       2                       # What write queue length does an incoming req see
system.mem_ctrl.wrQLenPdf::34                       1                       # What write queue length does an incoming req see
system.mem_ctrl.wrQLenPdf::35                       0                       # What write queue length does an incoming req see
system.mem_ctrl.wrQLenPdf::36                       0                       # What write queue length does an incoming req see
system.mem_ctrl.wrQLenPdf::37                       0                       # What write queue length does an incoming req see
system.mem_ctrl.wrQLenPdf::38                       0                       # What write queue length does an incoming req see
system.mem_ctrl.wrQLenPdf::39                       0                       # What write queue length does an incoming req see
system.mem_ctrl.wrQLenPdf::40                       0                       # What write queue length does an incoming req see
system.mem_ctrl.wrQLenPdf::41                       0                       # What write queue length does an incoming req see
system.mem_ctrl.wrQLenPdf::42                       0                       # What write queue length does an incoming req see
system.mem_ctrl.wrQLenPdf::43                       0                       # What write queue length does an incoming req see
system.mem_ctrl.wrQLenPdf::44                       0                       # What write queue length does an incoming req see
system.mem_ctrl.wrQLenPdf::45                       0                       # What write queue length does an incoming req see
system.mem_ctrl.wrQLenPdf::46                       0                       # What write queue length does an incoming req see
system.mem_ctrl.wrQLenPdf::47                       0                       # What write queue length does an incoming req see
system.mem_ctrl.wrQLenPdf::48                       0                       # What write queue length does an incoming req see
system.mem_ctrl.wrQLenPdf::49                       0                       # What write queue length does an incoming req see
system.mem_ctrl.wrQLenPdf::50                       0                       # What write queue length does an incoming req see
system.mem_ctrl.wrQLenPdf::51                       0                       # What write queue length does an incoming req see
system.mem_ctrl.wrQLenPdf::52                       0                       # What write queue length does an incoming req see
system.mem_ctrl.wrQLenPdf::53                       0                       # What write queue length does an incoming req see
system.mem_ctrl.wrQLenPdf::54                       0                       # What write queue length does an incoming req see
system.mem_ctrl.wrQLenPdf::55                       0                       # What write queue length does an incoming req see
system.mem_ctrl.wrQLenPdf::56                       0                       # What write queue length does an incoming req see
system.mem_ctrl.wrQLenPdf::57                       0                       # What write queue length does an incoming req see
system.mem_ctrl.wrQLenPdf::58                       0                       # What write queue length does an incoming req see
system.mem_ctrl.wrQLenPdf::59                       0                       # What write queue length does an incoming req see
system.mem_ctrl.wrQLenPdf::60                       0                       # What write queue length does an incoming req see
system.mem_ctrl.wrQLenPdf::61                       0                       # What write queue length does an incoming req see
system.mem_ctrl.wrQLenPdf::62                       0                       # What write queue length does an incoming req see
system.mem_ctrl.wrQLenPdf::63                       0                       # What write queue length does an incoming req see
system.mem_ctrl.bytesPerActivate::samples        33397                       # Bytes accessed per row activation
system.mem_ctrl.bytesPerActivate::mean     487.650987                       # Bytes accessed per row activation
system.mem_ctrl.bytesPerActivate::gmean    320.498038                       # Bytes accessed per row activation
system.mem_ctrl.bytesPerActivate::stdev    365.471452                       # Bytes accessed per row activation
system.mem_ctrl.bytesPerActivate::0-127          6630     19.85%     19.85% # Bytes accessed per row activation
system.mem_ctrl.bytesPerActivate::128-255         5237     15.68%     35.53% # Bytes accessed per row activation
system.mem_ctrl.bytesPerActivate::256-383         3732     11.17%     46.71% # Bytes accessed per row activation
system.mem_ctrl.bytesPerActivate::384-511         2756      8.25%     54.96% # Bytes accessed per row activation
system.mem_ctrl.bytesPerActivate::512-639         2094      6.27%     61.23% # Bytes accessed per row activation
system.mem_ctrl.bytesPerActivate::640-767         2341      7.01%     68.24% # Bytes accessed per row activation
system.mem_ctrl.bytesPerActivate::768-895         2651      7.94%     76.18% # Bytes accessed per row activation
system.mem_ctrl.bytesPerActivate::896-1023         1243      3.72%     79.90% # Bytes accessed per row activation
system.mem_ctrl.bytesPerActivate::1024-1151         6713     20.10%    100.00% # Bytes accessed per row activation
system.mem_ctrl.bytesPerActivate::total         33397                       # Bytes accessed per row activation
system.mem_ctrl.rdPerTurnAround::samples         7136                       # Reads before turning the bus around for writes
system.mem_ctrl.rdPerTurnAround::mean       17.679512                       # Reads before turning the bus around for writes
system.mem_ctrl.rdPerTurnAround::gmean      17.653674                       # Reads before turning the bus around for writes
system.mem_ctrl.rdPerTurnAround::stdev       1.804225                       # Reads before turning the bus around for writes
system.mem_ctrl.rdPerTurnAround::8-15              61      0.85%      0.85% # Reads before turning the bus around for writes
system.mem_ctrl.rdPerTurnAround::16-23           7074     99.13%     99.99% # Reads before turning the bus around for writes
system.mem_ctrl.rdPerTurnAround::160-167            1      0.01%    100.00% # Reads before turning the bus around for writes
system.mem_ctrl.rdPerTurnAround::total           7136                       # Reads before turning the bus around for writes
system.mem_ctrl.wrPerTurnAround::samples         7136                       # Writes before turning the bus around for reads
system.mem_ctrl.wrPerTurnAround::mean       17.985006                       # Writes before turning the bus around for reads
system.mem_ctrl.wrPerTurnAround::gmean      17.982839                       # Writes before turning the bus around for reads
system.mem_ctrl.wrPerTurnAround::stdev       0.271876                       # Writes before turning the bus around for reads
system.mem_ctrl.wrPerTurnAround::16               104      1.46%      1.46% # Writes before turning the bus around for reads
system.mem_ctrl.wrPerTurnAround::17                 4      0.06%      1.51% # Writes before turning the bus around for reads
system.mem_ctrl.wrPerTurnAround::18              6925     97.04%     98.56% # Writes before turning the bus around for reads
system.mem_ctrl.wrPerTurnAround::19               101      1.42%     99.97% # Writes before turning the bus around for reads
system.mem_ctrl.wrPerTurnAround::20                 2      0.03%    100.00% # Writes before turning the bus around for reads
system.mem_ctrl.wrPerTurnAround::total           7136                       # Writes before turning the bus around for reads
system.mem_ctrl.totQLat                    2124772000                       # Total ticks spent queuing
system.mem_ctrl.totMemAccLat               4490347000                       # Total ticks spent from burst creation until serviced by the DRAM
system.mem_ctrl.totBusLat                   630820000                       # Total ticks spent in databus transfers
system.mem_ctrl.avgQLat                      16841.35                       # Average queueing delay per DRAM burst
system.mem_ctrl.avgBusLat                     5000.00                       # Average bus latency per DRAM burst
system.mem_ctrl.avgMemAccLat                 35591.35                       # Average memory access latency per DRAM burst
system.mem_ctrl.avgRdBW                        121.61                       # Average DRAM read bandwidth in MiByte/s
system.mem_ctrl.avgWrBW                        123.71                       # Average achieved write bandwidth in MiByte/s
system.mem_ctrl.avgRdBWSys                     124.75                       # Average system read bandwidth in MiByte/s
system.mem_ctrl.avgWrBWSys                     124.63                       # Average system write bandwidth in MiByte/s
system.mem_ctrl.peakBW                       12800.00                       # Theoretical peak bandwidth in MiByte/s
system.mem_ctrl.busUtil                          1.92                       # Data bus utilization in percentage
system.mem_ctrl.busUtilRead                      0.95                       # Data bus utilization in percentage for reads
system.mem_ctrl.busUtilWrite                     0.97                       # Data bus utilization in percentage for writes
system.mem_ctrl.avgRdQLen                        1.00                       # Average read queue length when enqueuing
system.mem_ctrl.avgWrQLen                       24.51                       # Average write queue length when enqueuing
system.mem_ctrl.readRowHits                    111689                       # Number of row buffer hits during reads
system.mem_ctrl.writeRowHits                   109411                       # Number of row buffer hits during writes
system.mem_ctrl.readRowHitRate                  88.53                       # Row buffer hit rate for reads
system.mem_ctrl.writeRowHitRate                 85.24                       # Row buffer hit rate for writes
system.mem_ctrl.avgGap                      256642.05                       # Average gap between requests
system.mem_ctrl.pageHitRate                     86.87                       # Row buffer hit rate, read and write combined
system.mem_ctrl_0.actEnergy                 124685820                       # Energy for activate commands per rank (pJ)
system.mem_ctrl_0.preEnergy                  66260700                       # Energy for precharge commands per rank (pJ)
system.mem_ctrl_0.readEnergy                448420560                       # Energy for read commands per rank (pJ)
system.mem_ctrl_0.writeEnergy               338041980                       # Energy for write commands per rank (pJ)
system.mem_ctrl_0.refreshEnergy          5692795680.000001                       # Energy for refresh commands per rank (pJ)
system.mem_ctrl_0.actBackEnergy            4822748340                       # Energy for active background per rank (pJ)
system.mem_ctrl_0.preBackEnergy             312419520                       # Energy for precharge background per rank (pJ)
system.mem_ctrl_0.actPowerDownEnergy      12670163490                       # Energy for active power-down per rank (pJ)
system.mem_ctrl_0.prePowerDownEnergy       7398492000                       # Energy for precharge power-down per rank (pJ)
system.mem_ctrl_0.selfRefreshEnergy        2951461215                       # Energy for self refresh per rank (pJ)
system.mem_ctrl_0.totalEnergy             34829436855                       # Total energy per rank (pJ)
system.mem_ctrl_0.averagePower             524.580388                       # Core power per rank (mW)
system.mem_ctrl_0.totalIdleTime           54996383250                       # Total Idle time Per DRAM Rank
system.mem_ctrl_0.memoryStateTime::IDLE     600969250                       # Time in different power states
system.mem_ctrl_0.memoryStateTime::REF     2419586000                       # Time in different power states
system.mem_ctrl_0.memoryStateTime::SREF    7943912500                       # Time in different power states
system.mem_ctrl_0.memoryStateTime::PRE_PDN  19266972250                       # Time in different power states
system.mem_ctrl_0.memoryStateTime::ACT     8377870000                       # Time in different power states
system.mem_ctrl_0.memoryStateTime::ACT_PDN  27785541000                       # Time in different power states
system.mem_ctrl_1.actEnergy                 113825880                       # Energy for activate commands per rank (pJ)
system.mem_ctrl_1.preEnergy                  60480915                       # Energy for precharge commands per rank (pJ)
system.mem_ctrl_1.readEnergy                452390400                       # Energy for read commands per rank (pJ)
system.mem_ctrl_1.writeEnergy               331898040                       # Energy for write commands per rank (pJ)
system.mem_ctrl_1.refreshEnergy          5507789040.000001                       # Energy for refresh commands per rank (pJ)
system.mem_ctrl_1.actBackEnergy            4619556450                       # Energy for active background per rank (pJ)
system.mem_ctrl_1.preBackEnergy             280096320                       # Energy for precharge background per rank (pJ)
system.mem_ctrl_1.actPowerDownEnergy      12819557640                       # Energy for active power-down per rank (pJ)
system.mem_ctrl_1.prePowerDownEnergy       6847719360                       # Energy for precharge power-down per rank (pJ)
system.mem_ctrl_1.selfRefreshEnergy        3290556120                       # Energy for self refresh per rank (pJ)
system.mem_ctrl_1.totalEnergy             34327236345                       # Total energy per rank (pJ)
system.mem_ctrl_1.averagePower             517.016531                       # Core power per rank (mW)
system.mem_ctrl_1.totalIdleTime           55527426000                       # Total Idle time Per DRAM Rank
system.mem_ctrl_1.memoryStateTime::IDLE     520380750                       # Time in different power states
system.mem_ctrl_1.memoryStateTime::REF     2340816000                       # Time in different power states
system.mem_ctrl_1.memoryStateTime::SREF    9581666500                       # Time in different power states
system.mem_ctrl_1.memoryStateTime::PRE_PDN  17832640000                       # Time in different power states
system.mem_ctrl_1.memoryStateTime::ACT     8006049250                       # Time in different power states
system.mem_ctrl_1.memoryStateTime::ACT_PDN  28113298500                       # Time in different power states
system.pwrStateResidencyTicks::UNDEFINED  66394851000                       # Cumulative time (in ticks) in various power states
system.cache.pwrStateResidencyTicks::UNDEFINED  66394851000                       # Cumulative time (in ticks) in various power states
system.cache.hits                            57883772                       # Number of hits
system.cache.misses                            129417                       # Number of misses
system.cache.missLatency::samples              129417                       # Ticks for misses to the cache
system.cache.missLatency::mean           64764.768153                       # Ticks for misses to the cache
system.cache.missLatency::gmean          58095.520815                       # Ticks for misses to the cache
system.cache.missLatency::stdev          50726.435214                       # Ticks for misses to the cache
system.cache.missLatency::0-65535              118581     91.63%     91.63% # Ticks for misses to the cache
system.cache.missLatency::65536-131071           5525      4.27%     95.90% # Ticks for misses to the cache
system.cache.missLatency::131072-196607          1051      0.81%     96.71% # Ticks for misses to the cache
system.cache.missLatency::196608-262143           145      0.11%     96.82% # Ticks for misses to the cache
system.cache.missLatency::262144-327679          1633      1.26%     98.08% # Ticks for misses to the cache
system.cache.missLatency::327680-393215          2404      1.86%     99.94% # Ticks for misses to the cache
system.cache.missLatency::393216-458751             0      0.00%     99.94% # Ticks for misses to the cache
system.cache.missLatency::458752-524287             0      0.00%     99.94% # Ticks for misses to the cache
system.cache.missLatency::524288-589823             0      0.00%     99.94% # Ticks for misses to the cache
system.cache.missLatency::589824-655359            78      0.06%    100.00% # Ticks for misses to the cache
system.cache.missLatency::655360-720895             0      0.00%    100.00% # Ticks for misses to the cache
system.cache.missLatency::720896-786431             0      0.00%    100.00% # Ticks for misses to the cache
system.cache.missLatency::786432-851967             0      0.00%    100.00% # Ticks for misses to the cache
system.cache.missLatency::851968-917503             0      0.00%    100.00% # Ticks for misses to the cache
system.cache.missLatency::917504-983039             0      0.00%    100.00% # Ticks for misses to the cache
system.cache.missLatency::983040-1.04858e+06            0      0.00%    100.00% # Ticks for misses to the cache
system.cache.missLatency::total                129417                       # Ticks for misses to the cache
system.cache.hitRatio                        0.997769                       # The ratio of hits to the total accesses to the cache
system.cpu.dtb.fetch_hits                           0                       # ITB hits
system.cpu.dtb.fetch_misses                         0                       # ITB misses
system.cpu.dtb.fetch_acv                            0                       # ITB acv
system.cpu.dtb.fetch_accesses                       0                       # ITB accesses
system.cpu.dtb.read_hits                     10001315                       # DTB read hits
system.cpu.dtb.read_misses                        516                       # DTB read misses
system.cpu.dtb.read_acv                             0                       # DTB read access violations
system.cpu.dtb.read_accesses                 10001831                       # DTB read accesses
system.cpu.dtb.write_hits                     4001460                       # DTB write hits
system.cpu.dtb.write_misses                       915                       # DTB write misses
system.cpu.dtb.write_acv                            0                       # DTB write access violations
system.cpu.dtb.write_accesses                 4002375                       # DTB write accesses
system.cpu.dtb.data_hits                     14002775                       # DTB hits
system.cpu.dtb.data_misses                       1431                       # DTB misses
system.cpu.dtb.data_acv                             0                       # DTB access violations
system.cpu.dtb.data_accesses                 14004206                       # DTB accesses
system.cpu.itb.fetch_hits                    44010415                       # ITB hits
system.cpu.itb.fetch_misses                        19                       # ITB misses
system.cpu.itb.fetch_acv                            0                       # ITB acv
system.cpu.itb.fetch_accesses                44010434                       # ITB accesses
system.cpu.itb.read_hits                            0                       # DTB read hits
system.cpu.itb.read_misses                          0                       # DTB read misses
system.cpu.itb.read_acv                             0                       # DTB read access violations
system.cpu.itb.read_accesses                        0                       # DTB read accesses
system.cpu.itb.write_hits                           0                       # DTB write hits
system.cpu.itb.write_misses                         0                       # DTB write misses
system.cpu.itb.write_acv                            0                       # DTB write access violations
system.cpu.itb.write_accesses                       0                       # DTB write accesses
system.cpu.itb.data_hits                            0                       # DTB hits
system.cpu.itb.data_misses                          0                       # DTB misses
system.cpu.itb.data_acv                             0                       # DTB access violations
system.cpu.itb.data_accesses                        0                       # DTB accesses
system.cpu.workload.numSyscalls                    10                       # Number of system calls
system.cpu.pwrStateResidencyTicks::ON     66394851000                       # Cumulative time (in ticks) in various power states
system.cpu.numCycles                         66394851                       # number of cpu cycles simulated
system.cpu.numWorkItemsStarted                      0                       # number of work items this cpu started
system.cpu.numWorkItemsCompleted                    0                       # number of work items this cpu completed
system.cpu.committedInsts                    44008983                       # Number of instructions committed
system.cpu.committedOps                      44008983                       # Number of ops (including micro ops) committed
system.cpu.num_int_alu_accesses              42010330                       # Number of integer alu accesses
system.cpu.num_fp_alu_accesses                     16                       # Number of float alu accesses
system.cpu.num_vec_alu_accesses                     0                       # Number of vector alu accesses
system.cpu.num_func_calls                         231                       # number of times a function call or return occured
system.cpu.num_conditional_control_insts      2001276                       # number of instructions that are conditional controls
system.cpu.num_int_insts                     42010330                       # number of integer instructions
system.cpu.num_fp_insts                            16                       # number of float instructions
system.cpu.num_vec_insts                            0                       # number of vector instructions
system.cpu.num_int_register_reads            53014129                       # number of times the integer registers were read
system.cpu.num_int_register_writes           36006038                       # number of times the integer registers were written
system.cpu.num_fp_register_reads                   14                       # number of times the floating registers were read
system.cpu.num_fp_register_writes                   2                       # number of times the floating registers were written
system.cpu.num_vec_register_reads                   0                       # number of times the vector registers were read
system.cpu.num_vec_register_writes                  0                       # number of times the vector registers were written
system.cpu.num_mem_refs                      14004206                       # number of memory refs
system.cpu.num_load_insts                    10001831                       # Number of load instructions
system.cpu.num_store_insts                    4002375                       # Number of store instructions
system.cpu.num_idle_cycles                          0                       # Number of idle cycles
system.cpu.num_busy_cycles                   66394851                       # Number of busy cycles
system.cpu.not_idle_fraction                        1                       # Percentage of non-idle cycles
system.cpu.idle_fraction                            0                       # Percentage of idle cycles
system.cpu.Branches                           4001572                       # Number of branches fetched
system.cpu.op_class::No_OpClass                    22      0.00%      0.00% # Class of executed instruction
system.cpu.op_class::IntAlu                  30006176     68.18%     68.18% # Class of executed instruction
system.cpu.op_class::IntMult                        8      0.00%     68.18% # Class of executed instruction
system.cpu.op_class::IntDiv                         0      0.00%     68.18% # Class of executed instruction
system.cpu.op_class::FloatAdd                       2      0.00%     68.18% # Class of executed instruction
system.cpu.op_class::FloatCmp                       0      0.00%     68.18% # Class of executed instruction
system.cpu.op_class::FloatCvt                       0      0.00%     68.18% # Class of executed instruction
system.cpu.op_class::FloatMult                      0      0.00%     68.18% # Class of executed instruction
system.cpu.op_class::FloatMultAcc                   0      0.00%     68.18% # Class of executed instruction
system.cpu.op_class::FloatDiv                       0      0.00%     68.18% # Class of executed instruction
system.cpu.op_class::FloatMisc                      0      0.00%     68.18% # Class of executed instruction
system.cpu.op_class::FloatSqrt                      0      0.00%     68.18% # Class of executed instruction
system.cpu.op_class::SimdAdd                        0      0.00%     68.18% # Class of executed instruction
system.cpu.op_class::SimdAddAcc                     0      0.00%     68.18% # Class of executed instruction
system.cpu.op_class::SimdAlu                        0      0.00%     68.18% # Class of executed instruction
system.cpu.op_class::SimdCmp                        0      0.00%     68.18% # Class of executed instruction
system.cpu.op_class::SimdCvt                        0      0.00%     68.18% # Class of executed instruction
system.cpu.op_class::SimdMisc                       0      0.00%     68.18% # Class of executed instruction
system.cpu.op_class::SimdMult                       0      0.00%     68.18% # Class of executed instruction
system.cpu.op_class::SimdMultAcc                    0      0.00%     68.18% # Class of executed instruction
system.cpu.op_class::SimdShift                      0      0.00%     68.18% # Class of executed instruction
system.cpu.op_class::SimdShiftAcc                   0      0.00%     68.18% # Class of executed instruction
system.cpu.op_class::SimdSqrt                       0      0.00%     68.18% # Class of executed instruction
system.cpu.op_class::SimdFloatAdd                   0      0.00%     68.18% # Class of executed instruction
system.cpu.op_class::SimdFloatAlu                   0      0.00%     68.18% # Class of executed instruction
system.cpu.op_class::SimdFloatCmp                   0      0.00%     68.18% # Class of executed instruction
system.cpu.op_class::SimdFloatCvt                   0      0.00%     68.18% # Class of executed instruction
system.cpu.op_class::SimdFloatDiv                   0      0.00%     68.18% # Class of executed instruction
system.cpu.op_class::SimdFloatMisc                  0      0.00%     68.18% # Class of executed instruction
system.cpu.op_class::SimdFloatMult                  0      0.00%     68.18% # Class of executed instruction
system.cpu.op_class::SimdFloatMultAcc               0      0.00%     68.18% # Class of executed instruction
system.cpu.op_class::SimdFloatSqrt                  0      0.00%     68.18% # Class of executed instruction
system.cpu.op_class::MemRead                 10001830     22.73%     90.91% # Class of executed instruction
system.cpu.op_class::MemWrite                 4002362      9.09%    100.00% # Class of executed instruction
system.cpu.op_class::FloatMemRead                   1      0.00%    100.00% # Class of executed instruction
system.cpu.op_class::FloatMemWrite                 13      0.00%    100.00% # Class of executed instruction
system.cpu.op_class::IprAccess                      0      0.00%    100.00% # Class of executed instruction
system.cpu.op_class::InstPrefetch                   0      0.00%    100.00% # Class of executed instruction
system.cpu.op_class::total                   44010414                       # Class of executed instruction
system.membus.snoop_filter.tot_requests             0                       # Total number of requests made to the snoop filter.
system.membus.snoop_filter.hit_single_requests            0                       # Number of requests hitting in the snoop filter with a single holder of the requested data.
system.membus.snoop_filter.hit_multi_requests            0                       # Number of requests hitting in the snoop filter with multiple (>1) holders of the requested data.
system.membus.snoop_filter.tot_snoops               0                       # Total number of snoops made to the snoop filter.
system.membus.snoop_filter.hit_single_snoops            0                       # Number of snoops hitting in the snoop filter with a single holder of the requested data.
system.membus.snoop_filter.hit_multi_snoops            0                       # Number of snoops hitting in the snoop filter with multiple (>1) holders of the requested data.
system.membus.pwrStateResidencyTicks::UNDEFINED  66394851000                       # Cumulative time (in ticks) in various power states
system.membus.trans_dist::ReadReq              129417                       # Transaction distribution
system.membus.trans_dist::ReadResp             129417                       # Transaction distribution
system.membus.trans_dist::WritebackDirty       129289                       # Transaction distribution
system.membus.pkt_count_system.cache.mem_side::system.mem_ctrl.port       388123                       # Packet count per connected master and slave (bytes)
system.membus.pkt_count::total                 388123                       # Packet count per connected master and slave (bytes)
system.membus.pkt_size_system.cache.mem_side::system.mem_ctrl.port     16557184                       # Cumulative packet size per connected master and slave (bytes)
system.membus.pkt_size::total                16557184                       # Cumulative packet size per connected master and slave (bytes)
system.membus.snoops                                0                       # Total snoops (count)
system.membus.snoopTraffic                          0                       # Total snoop traffic (bytes)
system.membus.snoop_fanout::samples            129417                       # Request fanout histogram
system.membus.snoop_fanout::mean                    0                       # Request fanout histogram
system.membus.snoop_fanout::stdev                   0                       # Request fanout histogram
system.membus.snoop_fanout::underflows              0      0.00%      0.00% # Request fanout histogram
system.membus.snoop_fanout::0                  129417    100.00%    100.00% # Request fanout histogram
system.membus.snoop_fanout::overflows               0      0.00%    100.00% # Request fanout histogram
system.membus.snoop_fanout::min_value               0                       # Request fanout histogram
system.membus.snoop_fanout::max_value               0                       # Request fanout histogram
system.membus.snoop_fanout::total              129417                       # Request fanout histogram
system.membus.reqLayer0.occupancy           775862000                       # Layer occupancy (ticks)
system.membus.reqLayer0.utilization               1.2                       # Layer utilization (%)
system.membus.respLayer0.occupancy          681648000                       # Layer occupancy (ticks)
system.membus.respLayer0.utilization              1.0                       # Layer utilization (%)

---------- End Simulation Statistics   ----------
