
---------- Begin Simulation Statistics ----------
sim_seconds                                  0.000225                       # Number of seconds simulated
sim_ticks                                   225224000                       # Number of ticks simulated
final_tick                                  225224000                       # Number of ticks from beginning of simulation (restored from checkpoints and never reset)
sim_freq                                 1000000000000                       # Frequency of simulated ticks
host_inst_rate                                 250281                       # Simulator instruction rate (inst/s)
host_op_rate                                   250226                       # Simulator op (including micro ops) rate (op/s)
host_tick_rate                             4433892432                       # Simulator tick rate (ticks/s)
host_mem_usage                                6708372                       # Number of bytes of host memory used
host_seconds                                     0.05                       # Real time elapsed on the host
sim_insts                                       12708                       # Number of instructions simulated
sim_ops                                         12708                       # Number of ops (including micro ops) simulated
system.clk_domain.voltage_domain.voltage            1                       # Voltage in Volts
system.clk_domain.clock                          1000                       # Clock period in ticks
system.mem_ctrl.pwrStateResidencyTicks::UNDEFINED    225224000                       # Cumulative time (in ticks) in various power states
system.mem_ctrl.bytes_read::cpu.inst           206144                       # Number of bytes read from this memory
system.mem_ctrl.bytes_read::cpu.data           184448                       # Number of bytes read from this memory
system.mem_ctrl.bytes_read::total              390592                       # Number of bytes read from this memory
system.mem_ctrl.bytes_inst_read::cpu.inst       206144                       # Number of instructions bytes read from this memory
system.mem_ctrl.bytes_inst_read::total         206144                       # Number of instructions bytes read from this memory
system.mem_ctrl.bytes_written::writebacks       382400                       # Number of bytes written to this memory
system.mem_ctrl.bytes_written::total           382400                       # Number of bytes written to this memory
system.mem_ctrl.num_reads::cpu.inst              3221                       # Number of read requests responded to by this memory
system.mem_ctrl.num_reads::cpu.data              2882                       # Number of read requests responded to by this memory
system.mem_ctrl.num_reads::total                 6103                       # Number of read requests responded to by this memory
system.mem_ctrl.num_writes::writebacks           5975                       # Number of write requests responded to by this memory
system.mem_ctrl.num_writes::total                5975                       # Number of write requests responded to by this memory
system.mem_ctrl.bw_read::cpu.inst           915284339                       # Total read bandwidth from this memory (bytes/s)
system.mem_ctrl.bw_read::cpu.data           818953575                       # Total read bandwidth from this memory (bytes/s)
system.mem_ctrl.bw_read::total             1734237914                       # Total read bandwidth from this memory (bytes/s)
system.mem_ctrl.bw_inst_read::cpu.inst      915284339                       # Instruction read bandwidth from this memory (bytes/s)
system.mem_ctrl.bw_inst_read::total         915284339                       # Instruction read bandwidth from this memory (bytes/s)
system.mem_ctrl.bw_write::writebacks       1697865236                       # Write bandwidth from this memory (bytes/s)
system.mem_ctrl.bw_write::total            1697865236                       # Write bandwidth from this memory (bytes/s)
system.mem_ctrl.bw_total::writebacks       1697865236                       # Total bandwidth to/from this memory (bytes/s)
system.mem_ctrl.bw_total::cpu.inst          915284339                       # Total bandwidth to/from this memory (bytes/s)
system.mem_ctrl.bw_total::cpu.data          818953575                       # Total bandwidth to/from this memory (bytes/s)
system.mem_ctrl.bw_total::total            3432103151                       # Total bandwidth to/from this memory (bytes/s)
system.mem_ctrl.readReqs                         6103                       # Number of read requests accepted
system.mem_ctrl.writeReqs                        5975                       # Number of write requests accepted
system.mem_ctrl.readBursts                       6103                       # Number of DRAM read bursts, including those serviced by the write queue
system.mem_ctrl.writeBursts                      5975                       # Number of DRAM write bursts, including those merged in the write queue
system.mem_ctrl.bytesReadDRAM                   96960                       # Total number of bytes read from DRAM
system.mem_ctrl.bytesReadWrQ                   293632                       # Total number of bytes read from write queue
system.mem_ctrl.bytesWritten                    90688                       # Total number of bytes written to DRAM
system.mem_ctrl.bytesReadSys                   390592                       # Total read bytes from the system interface side
system.mem_ctrl.bytesWrittenSys                382400                       # Total written bytes from the system interface side
system.mem_ctrl.servicedByWrQ                    4588                       # Number of DRAM read bursts serviced by the write queue
system.mem_ctrl.mergedWrBursts                   4537                       # Number of DRAM write bursts merged with an existing one
system.mem_ctrl.neitherReadNorWriteReqs             0                       # Number of requests that are neither read nor write
system.mem_ctrl.perBankRdBursts::0                 61                       # Per bank write bursts
system.mem_ctrl.perBankRdBursts::1                  0                       # Per bank write bursts
system.mem_ctrl.perBankRdBursts::2                193                       # Per bank write bursts
system.mem_ctrl.perBankRdBursts::3                152                       # Per bank write bursts
system.mem_ctrl.perBankRdBursts::4                 78                       # Per bank write bursts
system.mem_ctrl.perBankRdBursts::5                 77                       # Per bank write bursts
system.mem_ctrl.perBankRdBursts::6                264                       # Per bank write bursts
system.mem_ctrl.perBankRdBursts::7                 55                       # Per bank write bursts
system.mem_ctrl.perBankRdBursts::8                 44                       # Per bank write bursts
system.mem_ctrl.perBankRdBursts::9                299                       # Per bank write bursts
system.mem_ctrl.perBankRdBursts::10                17                       # Per bank write bursts
system.mem_ctrl.perBankRdBursts::11                32                       # Per bank write bursts
system.mem_ctrl.perBankRdBursts::12                15                       # Per bank write bursts
system.mem_ctrl.perBankRdBursts::13                44                       # Per bank write bursts
system.mem_ctrl.perBankRdBursts::14                98                       # Per bank write bursts
system.mem_ctrl.perBankRdBursts::15                86                       # Per bank write bursts
system.mem_ctrl.perBankWrBursts::0                 51                       # Per bank write bursts
system.mem_ctrl.perBankWrBursts::1                  0                       # Per bank write bursts
system.mem_ctrl.perBankWrBursts::2                175                       # Per bank write bursts
system.mem_ctrl.perBankWrBursts::3                130                       # Per bank write bursts
system.mem_ctrl.perBankWrBursts::4                 77                       # Per bank write bursts
system.mem_ctrl.perBankWrBursts::5                 67                       # Per bank write bursts
system.mem_ctrl.perBankWrBursts::6                258                       # Per bank write bursts
system.mem_ctrl.perBankWrBursts::7                 47                       # Per bank write bursts
system.mem_ctrl.perBankWrBursts::8                 40                       # Per bank write bursts
system.mem_ctrl.perBankWrBursts::9                300                       # Per bank write bursts
system.mem_ctrl.perBankWrBursts::10                14                       # Per bank write bursts
system.mem_ctrl.perBankWrBursts::11                28                       # Per bank write bursts
system.mem_ctrl.perBankWrBursts::12                12                       # Per bank write bursts
system.mem_ctrl.perBankWrBursts::13                37                       # Per bank write bursts
system.mem_ctrl.perBankWrBursts::14               100                       # Per bank write bursts
system.mem_ctrl.perBankWrBursts::15                81                       # Per bank write bursts
system.mem_ctrl.numRdRetry                          0                       # Number of times read queue was full causing retry
system.mem_ctrl.numWrRetry                          0                       # Number of times write queue was full causing retry
system.mem_ctrl.totGap                      225216000                       # Total gap between requests
system.mem_ctrl.readPktSize::0                      0                       # Read request sizes (log2)
system.mem_ctrl.readPktSize::1                      0                       # Read request sizes (log2)
system.mem_ctrl.readPktSize::2                      0                       # Read request sizes (log2)
system.mem_ctrl.readPktSize::3                      0                       # Read request sizes (log2)
system.mem_ctrl.readPktSize::4                      0                       # Read request sizes (log2)
system.mem_ctrl.readPktSize::5                      0                       # Read request sizes (log2)
system.mem_ctrl.readPktSize::6                   6103                       # Read request sizes (log2)
system.mem_ctrl.writePktSize::0                     0                       # Write request sizes (log2)
system.mem_ctrl.writePktSize::1                     0                       # Write request sizes (log2)
system.mem_ctrl.writePktSize::2                     0                       # Write request sizes (log2)
system.mem_ctrl.writePktSize::3                     0                       # Write request sizes (log2)
system.mem_ctrl.writePktSize::4                     0                       # Write request sizes (log2)
system.mem_ctrl.writePktSize::5                     0                       # Write request sizes (log2)
system.mem_ctrl.writePktSize::6                  5975                       # Write request sizes (log2)
system.mem_ctrl.rdQLenPdf::0                     1515                       # What read queue length does an incoming req see
system.mem_ctrl.rdQLenPdf::1                        0                       # What read queue length does an incoming req see
system.mem_ctrl.rdQLenPdf::2                        0                       # What read queue length does an incoming req see
system.mem_ctrl.rdQLenPdf::3                        0                       # What read queue length does an incoming req see
system.mem_ctrl.rdQLenPdf::4                        0                       # What read queue length does an incoming req see
system.mem_ctrl.rdQLenPdf::5                        0                       # What read queue length does an incoming req see
system.mem_ctrl.rdQLenPdf::6                        0                       # What read queue length does an incoming req see
system.mem_ctrl.rdQLenPdf::7                        0                       # What read queue length does an incoming req see
system.mem_ctrl.rdQLenPdf::8                        0                       # What read queue length does an incoming req see
system.mem_ctrl.rdQLenPdf::9                        0                       # What read queue length does an incoming req see
system.mem_ctrl.rdQLenPdf::10                       0                       # What read queue length does an incoming req see
system.mem_ctrl.rdQLenPdf::11                       0                       # What read queue length does an incoming req see
system.mem_ctrl.rdQLenPdf::12                       0                       # What read queue length does an incoming req see
system.mem_ctrl.rdQLenPdf::13                       0                       # What read queue length does an incoming req see
system.mem_ctrl.rdQLenPdf::14                       0                       # What read queue length does an incoming req see
system.mem_ctrl.rdQLenPdf::15                       0                       # What read queue length does an incoming req see
system.mem_ctrl.rdQLenPdf::16                       0                       # What read queue length does an incoming req see
system.mem_ctrl.rdQLenPdf::17                       0                       # What read queue length does an incoming req see
system.mem_ctrl.rdQLenPdf::18                       0                       # What read queue length does an incoming req see
system.mem_ctrl.rdQLenPdf::19                       0                       # What read queue length does an incoming req see
system.mem_ctrl.rdQLenPdf::20                       0                       # What read queue length does an incoming req see
system.mem_ctrl.rdQLenPdf::21                       0                       # What read queue length does an incoming req see
system.mem_ctrl.rdQLenPdf::22                       0                       # What read queue length does an incoming req see
system.mem_ctrl.rdQLenPdf::23                       0                       # What read queue length does an incoming req see
system.mem_ctrl.rdQLenPdf::24                       0                       # What read queue length does an incoming req see
system.mem_ctrl.rdQLenPdf::25                       0                       # What read queue length does an incoming req see
system.mem_ctrl.rdQLenPdf::26                       0                       # What read queue length does an incoming req see
system.mem_ctrl.rdQLenPdf::27                       0                       # What read queue length does an incoming req see
system.mem_ctrl.rdQLenPdf::28                       0                       # What read queue length does an incoming req see
system.mem_ctrl.rdQLenPdf::29                       0                       # What read queue length does an incoming req see
system.mem_ctrl.rdQLenPdf::30                       0                       # What read queue length does an incoming req see
system.mem_ctrl.rdQLenPdf::31                       0                       # What read queue length does an incoming req see
system.mem_ctrl.wrQLenPdf::0                        1                       # What write queue length does an incoming req see
system.mem_ctrl.wrQLenPdf::1                        1                       # What write queue length does an incoming req see
system.mem_ctrl.wrQLenPdf::2                        1                       # What write queue length does an incoming req see
system.mem_ctrl.wrQLenPdf::3                        1                       # What write queue length does an incoming req see
system.mem_ctrl.wrQLenPdf::4                        1                       # What write queue length does an incoming req see
system.mem_ctrl.wrQLenPdf::5                        1                       # What write queue length does an incoming req see
system.mem_ctrl.wrQLenPdf::6                        1                       # What write queue length does an incoming req see
system.mem_ctrl.wrQLenPdf::7                        1                       # What write queue length does an incoming req see
system.mem_ctrl.wrQLenPdf::8                        1                       # What write queue length does an incoming req see
system.mem_ctrl.wrQLenPdf::9                        1                       # What write queue length does an incoming req see
system.mem_ctrl.wrQLenPdf::10                       1                       # What write queue length does an incoming req see
system.mem_ctrl.wrQLenPdf::11                       1                       # What write queue length does an incoming req see
system.mem_ctrl.wrQLenPdf::12                       1                       # What write queue length does an incoming req see
system.mem_ctrl.wrQLenPdf::13                       1                       # What write queue length does an incoming req see
system.mem_ctrl.wrQLenPdf::14                       1                       # What write queue length does an incoming req see
system.mem_ctrl.wrQLenPdf::15                      28                       # What write queue length does an incoming req see
system.mem_ctrl.wrQLenPdf::16                      31                       # What write queue length does an incoming req see
system.mem_ctrl.wrQLenPdf::17                      75                       # What write queue length does an incoming req see
system.mem_ctrl.wrQLenPdf::18                      87                       # What write queue length does an incoming req see
system.mem_ctrl.wrQLenPdf::19                      87                       # What write queue length does an incoming req see
system.mem_ctrl.wrQLenPdf::20                      86                       # What write queue length does an incoming req see
system.mem_ctrl.wrQLenPdf::21                      84                       # What write queue length does an incoming req see
system.mem_ctrl.wrQLenPdf::22                      84                       # What write queue length does an incoming req see
system.mem_ctrl.wrQLenPdf::23                     102                       # What write queue length does an incoming req see
system.mem_ctrl.wrQLenPdf::24                      87                       # What write queue length does an incoming req see
system.mem_ctrl.wrQLenPdf::25                      84                       # What write queue length does an incoming req see
system.mem_ctrl.wrQLenPdf::26                      84                       # What write queue length does an incoming req see
system.mem_ctrl.wrQLenPdf::27                      84                       # What write queue length does an incoming req see
system.mem_ctrl.wrQLenPdf::28                      84                       # What write queue length does an incoming req see
system.mem_ctrl.wrQLenPdf::29                      84                       # What write queue length does an incoming req see
system.mem_ctrl.wrQLenPdf::30                      84                       # What write queue length does an incoming req see
system.mem_ctrl.wrQLenPdf::31                      84                       # What write queue length does an incoming req see
system.mem_ctrl.wrQLenPdf::32                      84                       # What write queue length does an incoming req see
system.mem_ctrl.wrQLenPdf::33                       0                       # What write queue length does an incoming req see
system.mem_ctrl.wrQLenPdf::34                       0                       # What write queue length does an incoming req see
system.mem_ctrl.wrQLenPdf::35                       0                       # What write queue length does an incoming req see
system.mem_ctrl.wrQLenPdf::36                       0                       # What write queue length does an incoming req see
system.mem_ctrl.wrQLenPdf::37                       0                       # What write queue length does an incoming req see
system.mem_ctrl.wrQLenPdf::38                       0                       # What write queue length does an incoming req see
system.mem_ctrl.wrQLenPdf::39                       0                       # What write queue length does an incoming req see
system.mem_ctrl.wrQLenPdf::40                       0                       # What write queue length does an incoming req see
system.mem_ctrl.wrQLenPdf::41                       0                       # What write queue length does an incoming req see
system.mem_ctrl.wrQLenPdf::42                       0                       # What write queue length does an incoming req see
system.mem_ctrl.wrQLenPdf::43                       0                       # What write queue length does an incoming req see
system.mem_ctrl.wrQLenPdf::44                       0                       # What write queue length does an incoming req see
system.mem_ctrl.wrQLenPdf::45                       0                       # What write queue length does an incoming req see
system.mem_ctrl.wrQLenPdf::46                       0                       # What write queue length does an incoming req see
system.mem_ctrl.wrQLenPdf::47                       0                       # What write queue length does an incoming req see
system.mem_ctrl.wrQLenPdf::48                       0                       # What write queue length does an incoming req see
system.mem_ctrl.wrQLenPdf::49                       0                       # What write queue length does an incoming req see
system.mem_ctrl.wrQLenPdf::50                       0                       # What write queue length does an incoming req see
system.mem_ctrl.wrQLenPdf::51                       0                       # What write queue length does an incoming req see
system.mem_ctrl.wrQLenPdf::52                       0                       # What write queue length does an incoming req see
system.mem_ctrl.wrQLenPdf::53                       0                       # What write queue length does an incoming req see
system.mem_ctrl.wrQLenPdf::54                       0                       # What write queue length does an incoming req see
system.mem_ctrl.wrQLenPdf::55                       0                       # What write queue length does an incoming req see
system.mem_ctrl.wrQLenPdf::56                       0                       # What write queue length does an incoming req see
system.mem_ctrl.wrQLenPdf::57                       0                       # What write queue length does an incoming req see
system.mem_ctrl.wrQLenPdf::58                       0                       # What write queue length does an incoming req see
system.mem_ctrl.wrQLenPdf::59                       0                       # What write queue length does an incoming req see
system.mem_ctrl.wrQLenPdf::60                       0                       # What write queue length does an incoming req see
system.mem_ctrl.wrQLenPdf::61                       0                       # What write queue length does an incoming req see
system.mem_ctrl.wrQLenPdf::62                       0                       # What write queue length does an incoming req see
system.mem_ctrl.wrQLenPdf::63                       0                       # What write queue length does an incoming req see
system.mem_ctrl.bytesPerActivate::samples          510                       # Bytes accessed per row activation
system.mem_ctrl.bytesPerActivate::mean     363.796078                       # Bytes accessed per row activation
system.mem_ctrl.bytesPerActivate::gmean    248.798648                       # Bytes accessed per row activation
system.mem_ctrl.bytesPerActivate::stdev    310.104599                       # Bytes accessed per row activation
system.mem_ctrl.bytesPerActivate::0-127            90     17.65%     17.65% # Bytes accessed per row activation
system.mem_ctrl.bytesPerActivate::128-255          129     25.29%     42.94% # Bytes accessed per row activation
system.mem_ctrl.bytesPerActivate::256-383          111     21.76%     64.71% # Bytes accessed per row activation
system.mem_ctrl.bytesPerActivate::384-511           48      9.41%     74.12% # Bytes accessed per row activation
system.mem_ctrl.bytesPerActivate::512-639           24      4.71%     78.82% # Bytes accessed per row activation
system.mem_ctrl.bytesPerActivate::640-767           24      4.71%     83.53% # Bytes accessed per row activation
system.mem_ctrl.bytesPerActivate::768-895           15      2.94%     86.47% # Bytes accessed per row activation
system.mem_ctrl.bytesPerActivate::896-1023           22      4.31%     90.78% # Bytes accessed per row activation
system.mem_ctrl.bytesPerActivate::1024-1151           47      9.22%    100.00% # Bytes accessed per row activation
system.mem_ctrl.bytesPerActivate::total           510                       # Bytes accessed per row activation
system.mem_ctrl.rdPerTurnAround::samples           84                       # Reads before turning the bus around for writes
system.mem_ctrl.rdPerTurnAround::mean       17.988095                       # Reads before turning the bus around for writes
system.mem_ctrl.rdPerTurnAround::gmean      16.680182                       # Reads before turning the bus around for writes
system.mem_ctrl.rdPerTurnAround::stdev      15.729256                       # Reads before turning the bus around for writes
system.mem_ctrl.rdPerTurnAround::8-15              26     30.95%     30.95% # Reads before turning the bus around for writes
system.mem_ctrl.rdPerTurnAround::16-23             57     67.86%     98.81% # Reads before turning the bus around for writes
system.mem_ctrl.rdPerTurnAround::160-167            1      1.19%    100.00% # Reads before turning the bus around for writes
system.mem_ctrl.rdPerTurnAround::total             84                       # Reads before turning the bus around for writes
system.mem_ctrl.wrPerTurnAround::samples           84                       # Writes before turning the bus around for reads
system.mem_ctrl.wrPerTurnAround::mean       16.869048                       # Writes before turning the bus around for reads
system.mem_ctrl.wrPerTurnAround::gmean      16.825827                       # Writes before turning the bus around for reads
system.mem_ctrl.wrPerTurnAround::stdev       1.239702                       # Writes before turning the bus around for reads
system.mem_ctrl.wrPerTurnAround::16                54     64.29%     64.29% # Writes before turning the bus around for reads
system.mem_ctrl.wrPerTurnAround::17                 2      2.38%     66.67% # Writes before turning the bus around for reads
system.mem_ctrl.wrPerTurnAround::18                14     16.67%     83.33% # Writes before turning the bus around for reads
system.mem_ctrl.wrPerTurnAround::19                13     15.48%     98.81% # Writes before turning the bus around for reads
system.mem_ctrl.wrPerTurnAround::20                 1      1.19%    100.00% # Writes before turning the bus around for reads
system.mem_ctrl.wrPerTurnAround::total             84                       # Writes before turning the bus around for reads
system.mem_ctrl.totQLat                      23944500                       # Total ticks spent queuing
system.mem_ctrl.totMemAccLat                 52350750                       # Total ticks spent from burst creation until serviced by the DRAM
system.mem_ctrl.totBusLat                     7575000                       # Total ticks spent in databus transfers
system.mem_ctrl.avgQLat                      15804.95                       # Average queueing delay per DRAM burst
system.mem_ctrl.avgBusLat                     5000.00                       # Average bus latency per DRAM burst
system.mem_ctrl.avgMemAccLat                 34554.95                       # Average memory access latency per DRAM burst
system.mem_ctrl.avgRdBW                        430.50                       # Average DRAM read bandwidth in MiByte/s
system.mem_ctrl.avgWrBW                        402.66                       # Average achieved write bandwidth in MiByte/s
system.mem_ctrl.avgRdBWSys                    1734.24                       # Average system read bandwidth in MiByte/s
system.mem_ctrl.avgWrBWSys                    1697.87                       # Average system write bandwidth in MiByte/s
system.mem_ctrl.peakBW                       12800.00                       # Theoretical peak bandwidth in MiByte/s
system.mem_ctrl.busUtil                          6.51                       # Data bus utilization in percentage
system.mem_ctrl.busUtilRead                      3.36                       # Data bus utilization in percentage for reads
system.mem_ctrl.busUtilWrite                     3.15                       # Data bus utilization in percentage for writes
system.mem_ctrl.avgRdQLen                        1.00                       # Average read queue length when enqueuing
system.mem_ctrl.avgWrQLen                       24.25                       # Average write queue length when enqueuing
system.mem_ctrl.readRowHits                      1133                       # Number of row buffer hits during reads
system.mem_ctrl.writeRowHits                     1279                       # Number of row buffer hits during writes
system.mem_ctrl.readRowHitRate                  74.79                       # Row buffer hit rate for reads
system.mem_ctrl.writeRowHitRate                 88.94                       # Row buffer hit rate for writes
system.mem_ctrl.avgGap                       18646.80                       # Average gap between requests
system.mem_ctrl.pageHitRate                     81.68                       # Row buffer hit rate, read and write combined
system.mem_ctrl_0.actEnergy                   2106300                       # Energy for activate commands per rank (pJ)
system.mem_ctrl_0.preEnergy                   1104345                       # Energy for precharge commands per rank (pJ)
system.mem_ctrl_0.readEnergy                  6283200                       # Energy for read commands per rank (pJ)
system.mem_ctrl_0.writeEnergy                 4202100                       # Energy for write commands per rank (pJ)
system.mem_ctrl_0.refreshEnergy          17209920.000000                       # Energy for refresh commands per rank (pJ)
system.mem_ctrl_0.actBackEnergy              23959950                       # Energy for active background per rank (pJ)
system.mem_ctrl_0.preBackEnergy                344640                       # Energy for precharge background per rank (pJ)
system.mem_ctrl_0.actPowerDownEnergy         75867570                       # Energy for active power-down per rank (pJ)
system.mem_ctrl_0.prePowerDownEnergy          2076480                       # Energy for precharge power-down per rank (pJ)
system.mem_ctrl_0.selfRefreshEnergy                 0                       # Energy for self refresh per rank (pJ)
system.mem_ctrl_0.totalEnergy               133154505                       # Total energy per rank (pJ)
system.mem_ctrl_0.averagePower             591.206593                       # Core power per rank (mW)
system.mem_ctrl_0.totalIdleTime             171638750                       # Total Idle time Per DRAM Rank
system.mem_ctrl_0.memoryStateTime::IDLE        127000                       # Time in different power states
system.mem_ctrl_0.memoryStateTime::REF        7280000                       # Time in different power states
system.mem_ctrl_0.memoryStateTime::SREF             0                       # Time in different power states
system.mem_ctrl_0.memoryStateTime::PRE_PDN      5402750                       # Time in different power states
system.mem_ctrl_0.memoryStateTime::ACT       46055000                       # Time in different power states
system.mem_ctrl_0.memoryStateTime::ACT_PDN    166359250                       # Time in different power states
system.mem_ctrl_1.actEnergy                   1606500                       # Energy for activate commands per rank (pJ)
system.mem_ctrl_1.preEnergy                    831105                       # Energy for precharge commands per rank (pJ)
system.mem_ctrl_1.readEnergy                  4533900                       # Energy for read commands per rank (pJ)
system.mem_ctrl_1.writeEnergy                 3194640                       # Energy for write commands per rank (pJ)
system.mem_ctrl_1.refreshEnergy          17209920.000000                       # Energy for refresh commands per rank (pJ)
system.mem_ctrl_1.actBackEnergy              20419110                       # Energy for active background per rank (pJ)
system.mem_ctrl_1.preBackEnergy                522240                       # Energy for precharge background per rank (pJ)
system.mem_ctrl_1.actPowerDownEnergy         78209130                       # Energy for active power-down per rank (pJ)
system.mem_ctrl_1.prePowerDownEnergy          2908800                       # Energy for precharge power-down per rank (pJ)
system.mem_ctrl_1.selfRefreshEnergy                 0                       # Energy for self refresh per rank (pJ)
system.mem_ctrl_1.totalEnergy               129435345                       # Total energy per rank (pJ)
system.mem_ctrl_1.averagePower             574.693506                       # Core power per rank (mW)
system.mem_ctrl_1.totalIdleTime             179084250                       # Total Idle time Per DRAM Rank
system.mem_ctrl_1.memoryStateTime::IDLE        582000                       # Time in different power states
system.mem_ctrl_1.memoryStateTime::REF        7280000                       # Time in different power states
system.mem_ctrl_1.memoryStateTime::SREF             0                       # Time in different power states
system.mem_ctrl_1.memoryStateTime::PRE_PDN      7572750                       # Time in different power states
system.mem_ctrl_1.memoryStateTime::ACT       38240500                       # Time in different power states
system.mem_ctrl_1.memoryStateTime::ACT_PDN    171548750                       # Time in different power states
system.pwrStateResidencyTicks::UNDEFINED    225224000                       # Cumulative time (in ticks) in various power states
system.cache.pwrStateResidencyTicks::UNDEFINED    225224000                       # Cumulative time (in ticks) in various power states
system.cache.hits                               11131                       # Number of hits
system.cache.misses                              6103                       # Number of misses
system.cache.missLatency::samples                6103                       # Ticks for misses to the cache
system.cache.missLatency::mean           34079.960675                       # Ticks for misses to the cache
system.cache.missLatency::gmean          29851.001520                       # Ticks for misses to the cache
system.cache.missLatency::stdev          24601.401137                       # Ticks for misses to the cache
system.cache.missLatency::0-32767                4588     75.18%     75.18% # Ticks for misses to the cache
system.cache.missLatency::32768-65535            1122     18.38%     93.56% # Ticks for misses to the cache
system.cache.missLatency::65536-98303             315      5.16%     98.72% # Ticks for misses to the cache
system.cache.missLatency::98304-131071             24      0.39%     99.12% # Ticks for misses to the cache
system.cache.missLatency::131072-163839            27      0.44%     99.56% # Ticks for misses to the cache
system.cache.missLatency::163840-196607             6      0.10%     99.66% # Ticks for misses to the cache
system.cache.missLatency::196608-229375             1      0.02%     99.67% # Ticks for misses to the cache
system.cache.missLatency::229376-262143             5      0.08%     99.75% # Ticks for misses to the cache
system.cache.missLatency::262144-294911             4      0.07%     99.82% # Ticks for misses to the cache
system.cache.missLatency::294912-327679             8      0.13%     99.95% # Ticks for misses to the cache
system.cache.missLatency::327680-360447             3      0.05%    100.00% # Ticks for misses to the cache
system.cache.missLatency::360448-393215             0      0.00%    100.00% # Ticks for misses to the cache
system.cache.missLatency::393216-425983             0      0.00%    100.00% # Ticks for misses to the cache
system.cache.missLatency::425984-458751             0      0.00%    100.00% # Ticks for misses to the cache
system.cache.missLatency::458752-491519             0      0.00%    100.00% # Ticks for misses to the cache
system.cache.missLatency::491520-524287             0      0.00%    100.00% # Ticks for misses to the cache
system.cache.missLatency::total                  6103                       # Ticks for misses to the cache
system.cache.hitRatio                        0.645874                       # The ratio of hits to the total accesses to the cache
system.cpu.dtb.fetch_hits                           0                       # ITB hits
system.cpu.dtb.fetch_misses                         0                       # ITB misses
system.cpu.dtb.fetch_acv                            0                       # ITB acv
system.cpu.dtb.fetch_accesses                       0                       # ITB accesses
system.cpu.dtb.read_hits                         2632                       # DTB read hits
system.cpu.dtb.read_misses                         10                       # DTB read misses
system.cpu.dtb.read_acv                             0                       # DTB read access violations
system.cpu.dtb.read_accesses                     2642                       # DTB read accesses
system.cpu.dtb.write_hits                        1882                       # DTB write hits
system.cpu.dtb.write_misses                         2                       # DTB write misses
system.cpu.dtb.write_acv                            0                       # DTB write access violations
system.cpu.dtb.write_accesses                    1884                       # DTB write accesses
system.cpu.dtb.data_hits                         4514                       # DTB hits
system.cpu.dtb.data_misses                         12                       # DTB misses
system.cpu.dtb.data_acv                             0                       # DTB access violations
system.cpu.dtb.data_accesses                     4526                       # DTB accesses
system.cpu.itb.fetch_hits                       12721                       # ITB hits
system.cpu.itb.fetch_misses                        24                       # ITB misses
system.cpu.itb.fetch_acv                            0                       # ITB acv
system.cpu.itb.fetch_accesses                   12745                       # ITB accesses
system.cpu.itb.read_hits                            0                       # DTB read hits
system.cpu.itb.read_misses                          0                       # DTB read misses
system.cpu.itb.read_acv                             0                       # DTB read access violations
system.cpu.itb.read_accesses                        0                       # DTB read accesses
system.cpu.itb.write_hits                           0                       # DTB write hits
system.cpu.itb.write_misses                         0                       # DTB write misses
system.cpu.itb.write_acv                            0                       # DTB write access violations
system.cpu.itb.write_accesses                       0                       # DTB write accesses
system.cpu.itb.data_hits                            0                       # DTB hits
system.cpu.itb.data_misses                          0                       # DTB misses
system.cpu.itb.data_acv                             0                       # DTB access violations
system.cpu.itb.data_accesses                        0                       # DTB accesses
system.cpu.workload.numSyscalls                    11                       # Number of system calls
system.cpu.pwrStateResidencyTicks::ON       225224000                       # Cumulative time (in ticks) in various power states
system.cpu.numCycles                           225224                       # number of cpu cycles simulated
system.cpu.numWorkItemsStarted                      0                       # number of work items this cpu started
system.cpu.numWorkItemsCompleted                    0                       # number of work items this cpu completed
system.cpu.committedInsts                       12708                       # Number of instructions committed
system.cpu.committedOps                         12708                       # Number of ops (including micro ops) committed
system.cpu.num_int_alu_accesses                 12587                       # Number of integer alu accesses
system.cpu.num_fp_alu_accesses                     70                       # Number of float alu accesses
system.cpu.num_vec_alu_accesses                     0                       # Number of vector alu accesses
system.cpu.num_func_calls                         405                       # number of times a function call or return occured
system.cpu.num_conditional_control_insts         1337                       # number of instructions that are conditional controls
system.cpu.num_int_insts                        12587                       # number of integer instructions
system.cpu.num_fp_insts                            70                       # number of float instructions
system.cpu.num_vec_insts                            0                       # number of vector instructions
system.cpu.num_int_register_reads               17336                       # number of times the integer registers were read
system.cpu.num_int_register_writes               9137                       # number of times the integer registers were written
system.cpu.num_fp_register_reads                   68                       # number of times the floating registers were read
system.cpu.num_fp_register_writes                   2                       # number of times the floating registers were written
system.cpu.num_vec_register_reads                   0                       # number of times the vector registers were read
system.cpu.num_vec_register_writes                  0                       # number of times the vector registers were written
system.cpu.num_mem_refs                          4526                       # number of memory refs
system.cpu.num_load_insts                        2642                       # Number of load instructions
system.cpu.num_store_insts                       1884                       # Number of store instructions
system.cpu.num_idle_cycles                          0                       # Number of idle cycles
system.cpu.num_busy_cycles                     225224                       # Number of busy cycles
system.cpu.not_idle_fraction                        1                       # Percentage of non-idle cycles
system.cpu.idle_fraction                            0                       # Percentage of idle cycles
system.cpu.Branches                              1862                       # Number of branches fetched
system.cpu.op_class::No_OpClass                    22      0.17%      0.17% # Class of executed instruction
system.cpu.op_class::IntAlu                      8131     63.92%     64.10% # Class of executed instruction
system.cpu.op_class::IntMult                       39      0.31%     64.40% # Class of executed instruction
system.cpu.op_class::IntDiv                         0      0.00%     64.40% # Class of executed instruction
system.cpu.op_class::FloatAdd                       2      0.02%     64.42% # Class of executed instruction
system.cpu.op_class::FloatCmp                       0      0.00%     64.42% # Class of executed instruction
system.cpu.op_class::FloatCvt                       0      0.00%     64.42% # Class of executed instruction
system.cpu.op_class::FloatMult                      0      0.00%     64.42% # Class of executed instruction
system.cpu.op_class::FloatMultAcc                   0      0.00%     64.42% # Class of executed instruction
system.cpu.op_class::FloatDiv                       0      0.00%     64.42% # Class of executed instruction
system.cpu.op_class::FloatMisc                      0      0.00%     64.42% # Class of executed instruction
system.cpu.op_class::FloatSqrt                      0      0.00%     64.42% # Class of executed instruction
system.cpu.op_class::SimdAdd                        0      0.00%     64.42% # Class of executed instruction
system.cpu.op_class::SimdAddAcc                     0      0.00%     64.42% # Class of executed instruction
system.cpu.op_class::SimdAlu                        0      0.00%     64.42% # Class of executed instruction
system.cpu.op_class::SimdCmp                        0      0.00%     64.42% # Class of executed instruction
system.cpu.op_class::SimdCvt                        0      0.00%     64.42% # Class of executed instruction
system.cpu.op_class::SimdMisc                       0      0.00%     64.42% # Class of executed instruction
system.cpu.op_class::SimdMult                       0      0.00%     64.42% # Class of executed instruction
system.cpu.op_class::SimdMultAcc                    0      0.00%     64.42% # Class of executed instruction
system.cpu.op_class::SimdShift                      0      0.00%     64.42% # Class of executed instruction
system.cpu.op_class::SimdShiftAcc                   0      0.00%     64.42% # Class of executed instruction
system.cpu.op_class::SimdSqrt                       0      0.00%     64.42% # Class of executed instruction
system.cpu.op_class::SimdFloatAdd                   0      0.00%     64.42% # Class of executed instruction
system.cpu.op_class::SimdFloatAlu                   0      0.00%     64.42% # Class of executed instruction
system.cpu.op_class::SimdFloatCmp                   0      0.00%     64.42% # Class of executed instruction
system.cpu.op_class::SimdFloatCvt                   0      0.00%     64.42% # Class of executed instruction
system.cpu.op_class::SimdFloatDiv                   0      0.00%     64.42% # Class of executed instruction
system.cpu.op_class::SimdFloatMisc                  0      0.00%     64.42% # Class of executed instruction
system.cpu.op_class::SimdFloatMult                  0      0.00%     64.42% # Class of executed instruction
system.cpu.op_class::SimdFloatMultAcc               0      0.00%     64.42% # Class of executed instruction
system.cpu.op_class::SimdFloatSqrt                  0      0.00%     64.42% # Class of executed instruction
system.cpu.op_class::MemRead                     2641     20.76%     85.18% # Class of executed instruction
system.cpu.op_class::MemWrite                    1817     14.28%     99.47% # Class of executed instruction
system.cpu.op_class::FloatMemRead                   1      0.01%     99.47% # Class of executed instruction
system.cpu.op_class::FloatMemWrite                 67      0.53%    100.00% # Class of executed instruction
system.cpu.op_class::IprAccess                      0      0.00%    100.00% # Class of executed instruction
system.cpu.op_class::InstPrefetch                   0      0.00%    100.00% # Class of executed instruction
system.cpu.op_class::total                      12720                       # Class of executed instruction
system.membus.snoop_filter.tot_requests             0                       # Total number of requests made to the snoop filter.
system.membus.snoop_filter.hit_single_requests            0                       # Number of requests hitting in the snoop filter with a single holder of the requested data.
system.membus.snoop_filter.hit_multi_requests            0                       # Number of requests hitting in the snoop filter with multiple (>1) holders of the requested data.
system.membus.snoop_filter.tot_snoops               0                       # Total number of snoops made to the snoop filter.
system.membus.snoop_filter.hit_single_snoops            0                       # Number of snoops hitting in the snoop filter with a single holder of the requested data.
system.membus.snoop_filter.hit_multi_snoops            0                       # Number of snoops hitting in the snoop filter with multiple (>1) holders of the requested data.
system.membus.pwrStateResidencyTicks::UNDEFINED    225224000                       # Cumulative time (in ticks) in various power states
system.membus.trans_dist::ReadReq                6103                       # Transaction distribution
system.membus.trans_dist::ReadResp               6103                       # Transaction distribution
system.membus.trans_dist::WritebackDirty         5975                       # Transaction distribution
system.membus.pkt_count_system.cache.mem_side::system.mem_ctrl.port        18181                       # Packet count per connected master and slave (bytes)
system.membus.pkt_count::total                  18181                       # Packet count per connected master and slave (bytes)
system.membus.pkt_size_system.cache.mem_side::system.mem_ctrl.port       772992                       # Cumulative packet size per connected master and slave (bytes)
system.membus.pkt_size::total                  772992                       # Cumulative packet size per connected master and slave (bytes)
system.membus.snoops                                0                       # Total snoops (count)
system.membus.snoopTraffic                          0                       # Total snoop traffic (bytes)
system.membus.snoop_fanout::samples              6103                       # Request fanout histogram
system.membus.snoop_fanout::mean                    0                       # Request fanout histogram
system.membus.snoop_fanout::stdev                   0                       # Request fanout histogram
system.membus.snoop_fanout::underflows              0      0.00%      0.00% # Request fanout histogram
system.membus.snoop_fanout::0                    6103    100.00%    100.00% # Request fanout histogram
system.membus.snoop_fanout::overflows               0      0.00%    100.00% # Request fanout histogram
system.membus.snoop_fanout::min_value               0                       # Request fanout histogram
system.membus.snoop_fanout::max_value               0                       # Request fanout histogram
system.membus.snoop_fanout::total                6103                       # Request fanout histogram
system.membus.reqLayer0.occupancy            35978000                       # Layer occupancy (ticks)
system.membus.reqLayer0.utilization              16.0                       # Layer utilization (%)
system.membus.respLayer0.occupancy           31002250                       # Layer occupancy (ticks)
system.membus.respLayer0.utilization             13.8                       # Layer utilization (%)

---------- End Simulation Statistics   ----------
