
---------- Begin Simulation Statistics ----------
sim_seconds                                  0.000176                       # Number of seconds simulated
sim_ticks                                   175866000                       # Number of ticks simulated
final_tick                                  175866000                       # Number of ticks from beginning of simulation (restored from checkpoints and never reset)
sim_freq                                 1000000000000                       # Frequency of simulated ticks
host_inst_rate                                 300629                       # Simulator instruction rate (inst/s)
host_op_rate                                   300554                       # Simulator op (including micro ops) rate (op/s)
host_tick_rate                             4408442584                       # Simulator tick rate (ticks/s)
host_mem_usage                                6687892                       # Number of bytes of host memory used
host_seconds                                     0.04                       # Real time elapsed on the host
sim_insts                                       11987                       # Number of instructions simulated
sim_ops                                         11987                       # Number of ops (including micro ops) simulated
system.clk_domain.voltage_domain.voltage            1                       # Voltage in Volts
system.clk_domain.clock                          1000                       # Clock period in ticks
system.mem_ctrl.pwrStateResidencyTicks::UNDEFINED    175866000                       # Cumulative time (in ticks) in various power states
system.mem_ctrl.bytes_read::cpu.inst           177344                       # Number of bytes read from this memory
system.mem_ctrl.bytes_read::cpu.data           148864                       # Number of bytes read from this memory
system.mem_ctrl.bytes_read::total              326208                       # Number of bytes read from this memory
system.mem_ctrl.bytes_inst_read::cpu.inst       177344                       # Number of instructions bytes read from this memory
system.mem_ctrl.bytes_inst_read::total         177344                       # Number of instructions bytes read from this memory
system.mem_ctrl.bytes_written::writebacks       318016                       # Number of bytes written to this memory
system.mem_ctrl.bytes_written::total           318016                       # Number of bytes written to this memory
system.mem_ctrl.num_reads::cpu.inst              2771                       # Number of read requests responded to by this memory
system.mem_ctrl.num_reads::cpu.data              2326                       # Number of read requests responded to by this memory
system.mem_ctrl.num_reads::total                 5097                       # Number of read requests responded to by this memory
system.mem_ctrl.num_writes::writebacks           4969                       # Number of write requests responded to by this memory
system.mem_ctrl.num_writes::total                4969                       # Number of write requests responded to by this memory
system.mem_ctrl.bw_read::cpu.inst          1008404126                       # Total read bandwidth from this memory (bytes/s)
system.mem_ctrl.bw_read::cpu.data           846462648                       # Total read bandwidth from this memory (bytes/s)
system.mem_ctrl.bw_read::total             1854866774                       # Total read bandwidth from this memory (bytes/s)
system.mem_ctrl.bw_inst_read::cpu.inst     1008404126                       # Instruction read bandwidth from this memory (bytes/s)
system.mem_ctrl.bw_inst_read::total        1008404126                       # Instruction read bandwidth from this memory (bytes/s)
system.mem_ctrl.bw_write::writebacks       1808285854                       # Write bandwidth from this memory (bytes/s)
system.mem_ctrl.bw_write::total            1808285854                       # Write bandwidth from this memory (bytes/s)
system.mem_ctrl.bw_total::writebacks       1808285854                       # Total bandwidth to/from this memory (bytes/s)
system.mem_ctrl.bw_total::cpu.inst         1008404126                       # Total bandwidth to/from this memory (bytes/s)
system.mem_ctrl.bw_total::cpu.data          846462648                       # Total bandwidth to/from this memory (bytes/s)
system.mem_ctrl.bw_total::total            3663152628                       # Total bandwidth to/from this memory (bytes/s)
system.mem_ctrl.readReqs                         5097                       # Number of read requests accepted
system.mem_ctrl.writeReqs                        4969                       # Number of write requests accepted
system.mem_ctrl.readBursts                       5097                       # Number of DRAM read bursts, including those serviced by the write queue
system.mem_ctrl.writeBursts                      4969                       # Number of DRAM write bursts, including those merged in the write queue
system.mem_ctrl.bytesReadDRAM                   58304                       # Total number of bytes read from DRAM
system.mem_ctrl.bytesReadWrQ                   267904                       # Total number of bytes read from write queue
system.mem_ctrl.bytesWritten                    49856                       # Total number of bytes written to DRAM
system.mem_ctrl.bytesReadSys                   326208                       # Total read bytes from the system interface side
system.mem_ctrl.bytesWrittenSys                318016                       # Total written bytes from the system interface side
system.mem_ctrl.servicedByWrQ                    4186                       # Number of DRAM read bursts serviced by the write queue
system.mem_ctrl.mergedWrBursts                   4169                       # Number of DRAM write bursts merged with an existing one
system.mem_ctrl.neitherReadNorWriteReqs             0                       # Number of requests that are neither read nor write
system.mem_ctrl.perBankRdBursts::0                 80                       # Per bank write bursts
system.mem_ctrl.perBankRdBursts::1                 20                       # Per bank write bursts
system.mem_ctrl.perBankRdBursts::2                147                       # Per bank write bursts
system.mem_ctrl.perBankRdBursts::3                127                       # Per bank write bursts
system.mem_ctrl.perBankRdBursts::4                 89                       # Per bank write bursts
system.mem_ctrl.perBankRdBursts::5                 29                       # Per bank write bursts
system.mem_ctrl.perBankRdBursts::6                 66                       # Per bank write bursts
system.mem_ctrl.perBankRdBursts::7                 10                       # Per bank write bursts
system.mem_ctrl.perBankRdBursts::8                  3                       # Per bank write bursts
system.mem_ctrl.perBankRdBursts::9                149                       # Per bank write bursts
system.mem_ctrl.perBankRdBursts::10                 6                       # Per bank write bursts
system.mem_ctrl.perBankRdBursts::11                26                       # Per bank write bursts
system.mem_ctrl.perBankRdBursts::12                 4                       # Per bank write bursts
system.mem_ctrl.perBankRdBursts::13                35                       # Per bank write bursts
system.mem_ctrl.perBankRdBursts::14                75                       # Per bank write bursts
system.mem_ctrl.perBankRdBursts::15                45                       # Per bank write bursts
system.mem_ctrl.perBankWrBursts::0                 61                       # Per bank write bursts
system.mem_ctrl.perBankWrBursts::1                 16                       # Per bank write bursts
system.mem_ctrl.perBankWrBursts::2                124                       # Per bank write bursts
system.mem_ctrl.perBankWrBursts::3                109                       # Per bank write bursts
system.mem_ctrl.perBankWrBursts::4                 76                       # Per bank write bursts
system.mem_ctrl.perBankWrBursts::5                 23                       # Per bank write bursts
system.mem_ctrl.perBankWrBursts::6                 57                       # Per bank write bursts
system.mem_ctrl.perBankWrBursts::7                 10                       # Per bank write bursts
system.mem_ctrl.perBankWrBursts::8                  2                       # Per bank write bursts
system.mem_ctrl.perBankWrBursts::9                143                       # Per bank write bursts
system.mem_ctrl.perBankWrBursts::10                 6                       # Per bank write bursts
system.mem_ctrl.perBankWrBursts::11                25                       # Per bank write bursts
system.mem_ctrl.perBankWrBursts::12                 4                       # Per bank write bursts
system.mem_ctrl.perBankWrBursts::13                25                       # Per bank write bursts
system.mem_ctrl.perBankWrBursts::14                60                       # Per bank write bursts
system.mem_ctrl.perBankWrBursts::15                38                       # Per bank write bursts
system.mem_ctrl.numRdRetry                          0                       # Number of times read queue was full causing retry
system.mem_ctrl.numWrRetry                          0                       # Number of times write queue was full causing retry
system.mem_ctrl.totGap                      175858000                       # Total gap between requests
system.mem_ctrl.readPktSize::0                      0                       # Read request sizes (log2)
system.mem_ctrl.readPktSize::1                      0                       # Read request sizes (log2)
system.mem_ctrl.readPktSize::2                      0                       # Read request sizes (log2)
system.mem_ctrl.readPktSize::3                      0                       # Read request sizes (log2)
system.mem_ctrl.readPktSize::4                      0                       # Read request sizes (log2)
system.mem_ctrl.readPktSize::5                      0                       # Read request sizes (log2)
system.mem_ctrl.readPktSize::6                   5097                       # Read request sizes (log2)
system.mem_ctrl.writePktSize::0                     0                       # Write request sizes (log2)
system.mem_ctrl.writePktSize::1                     0                       # Write request sizes (log2)
system.mem_ctrl.writePktSize::2                     0                       # Write request sizes (log2)
system.mem_ctrl.writePktSize::3                     0                       # Write request sizes (log2)
system.mem_ctrl.writePktSize::4                     0                       # Write request sizes (log2)
system.mem_ctrl.writePktSize::5                     0                       # Write request sizes (log2)
system.mem_ctrl.writePktSize::6                  4969                       # Write request sizes (log2)
system.mem_ctrl.rdQLenPdf::0                      911                       # What read queue length does an incoming req see
system.mem_ctrl.rdQLenPdf::1                        0                       # What read queue length does an incoming req see
system.mem_ctrl.rdQLenPdf::2                        0                       # What read queue length does an incoming req see
system.mem_ctrl.rdQLenPdf::3                        0                       # What read queue length does an incoming req see
system.mem_ctrl.rdQLenPdf::4                        0                       # What read queue length does an incoming req see
system.mem_ctrl.rdQLenPdf::5                        0                       # What read queue length does an incoming req see
system.mem_ctrl.rdQLenPdf::6                        0                       # What read queue length does an incoming req see
system.mem_ctrl.rdQLenPdf::7                        0                       # What read queue length does an incoming req see
system.mem_ctrl.rdQLenPdf::8                        0                       # What read queue length does an incoming req see
system.mem_ctrl.rdQLenPdf::9                        0                       # What read queue length does an incoming req see
system.mem_ctrl.rdQLenPdf::10                       0                       # What read queue length does an incoming req see
system.mem_ctrl.rdQLenPdf::11                       0                       # What read queue length does an incoming req see
system.mem_ctrl.rdQLenPdf::12                       0                       # What read queue length does an incoming req see
system.mem_ctrl.rdQLenPdf::13                       0                       # What read queue length does an incoming req see
system.mem_ctrl.rdQLenPdf::14                       0                       # What read queue length does an incoming req see
system.mem_ctrl.rdQLenPdf::15                       0                       # What read queue length does an incoming req see
system.mem_ctrl.rdQLenPdf::16                       0                       # What read queue length does an incoming req see
system.mem_ctrl.rdQLenPdf::17                       0                       # What read queue length does an incoming req see
system.mem_ctrl.rdQLenPdf::18                       0                       # What read queue length does an incoming req see
system.mem_ctrl.rdQLenPdf::19                       0                       # What read queue length does an incoming req see
system.mem_ctrl.rdQLenPdf::20                       0                       # What read queue length does an incoming req see
system.mem_ctrl.rdQLenPdf::21                       0                       # What read queue length does an incoming req see
system.mem_ctrl.rdQLenPdf::22                       0                       # What read queue length does an incoming req see
system.mem_ctrl.rdQLenPdf::23                       0                       # What read queue length does an incoming req see
system.mem_ctrl.rdQLenPdf::24                       0                       # What read queue length does an incoming req see
system.mem_ctrl.rdQLenPdf::25                       0                       # What read queue length does an incoming req see
system.mem_ctrl.rdQLenPdf::26                       0                       # What read queue length does an incoming req see
system.mem_ctrl.rdQLenPdf::27                       0                       # What read queue length does an incoming req see
system.mem_ctrl.rdQLenPdf::28                       0                       # What read queue length does an incoming req see
system.mem_ctrl.rdQLenPdf::29                       0                       # What read queue length does an incoming req see
system.mem_ctrl.rdQLenPdf::30                       0                       # What read queue length does an incoming req see
system.mem_ctrl.rdQLenPdf::31                       0                       # What read queue length does an incoming req see
system.mem_ctrl.wrQLenPdf::0                        1                       # What write queue length does an incoming req see
system.mem_ctrl.wrQLenPdf::1                        1                       # What write queue length does an incoming req see
system.mem_ctrl.wrQLenPdf::2                        1                       # What write queue length does an incoming req see
system.mem_ctrl.wrQLenPdf::3                        1                       # What write queue length does an incoming req see
system.mem_ctrl.wrQLenPdf::4                        1                       # What write queue length does an incoming req see
system.mem_ctrl.wrQLenPdf::5                        1                       # What write queue length does an incoming req see
system.mem_ctrl.wrQLenPdf::6                        1                       # What write queue length does an incoming req see
system.mem_ctrl.wrQLenPdf::7                        1                       # What write queue length does an incoming req see
system.mem_ctrl.wrQLenPdf::8                        1                       # What write queue length does an incoming req see
system.mem_ctrl.wrQLenPdf::9                        1                       # What write queue length does an incoming req see
system.mem_ctrl.wrQLenPdf::10                       1                       # What write queue length does an incoming req see
system.mem_ctrl.wrQLenPdf::11                       1                       # What write queue length does an incoming req see
system.mem_ctrl.wrQLenPdf::12                       1                       # What write queue length does an incoming req see
system.mem_ctrl.wrQLenPdf::13                       1                       # What write queue length does an incoming req see
system.mem_ctrl.wrQLenPdf::14                       1                       # What write queue length does an incoming req see
system.mem_ctrl.wrQLenPdf::15                      11                       # What write queue length does an incoming req see
system.mem_ctrl.wrQLenPdf::16                      13                       # What write queue length does an incoming req see
system.mem_ctrl.wrQLenPdf::17                      41                       # What write queue length does an incoming req see
system.mem_ctrl.wrQLenPdf::18                      50                       # What write queue length does an incoming req see
system.mem_ctrl.wrQLenPdf::19                      49                       # What write queue length does an incoming req see
system.mem_ctrl.wrQLenPdf::20                      48                       # What write queue length does an incoming req see
system.mem_ctrl.wrQLenPdf::21                      47                       # What write queue length does an incoming req see
system.mem_ctrl.wrQLenPdf::22                      47                       # What write queue length does an incoming req see
system.mem_ctrl.wrQLenPdf::23                      55                       # What write queue length does an incoming req see
system.mem_ctrl.wrQLenPdf::24                      48                       # What write queue length does an incoming req see
system.mem_ctrl.wrQLenPdf::25                      47                       # What write queue length does an incoming req see
system.mem_ctrl.wrQLenPdf::26                      47                       # What write queue length does an incoming req see
system.mem_ctrl.wrQLenPdf::27                      47                       # What write queue length does an incoming req see
system.mem_ctrl.wrQLenPdf::28                      47                       # What write queue length does an incoming req see
system.mem_ctrl.wrQLenPdf::29                      47                       # What write queue length does an incoming req see
system.mem_ctrl.wrQLenPdf::30                      47                       # What write queue length does an incoming req see
system.mem_ctrl.wrQLenPdf::31                      47                       # What write queue length does an incoming req see
system.mem_ctrl.wrQLenPdf::32                      47                       # What write queue length does an incoming req see
system.mem_ctrl.wrQLenPdf::33                       0                       # What write queue length does an incoming req see
system.mem_ctrl.wrQLenPdf::34                       0                       # What write queue length does an incoming req see
system.mem_ctrl.wrQLenPdf::35                       0                       # What write queue length does an incoming req see
system.mem_ctrl.wrQLenPdf::36                       0                       # What write queue length does an incoming req see
system.mem_ctrl.wrQLenPdf::37                       0                       # What write queue length does an incoming req see
system.mem_ctrl.wrQLenPdf::38                       0                       # What write queue length does an incoming req see
system.mem_ctrl.wrQLenPdf::39                       0                       # What write queue length does an incoming req see
system.mem_ctrl.wrQLenPdf::40                       0                       # What write queue length does an incoming req see
system.mem_ctrl.wrQLenPdf::41                       0                       # What write queue length does an incoming req see
system.mem_ctrl.wrQLenPdf::42                       0                       # What write queue length does an incoming req see
system.mem_ctrl.wrQLenPdf::43                       0                       # What write queue length does an incoming req see
system.mem_ctrl.wrQLenPdf::44                       0                       # What write queue length does an incoming req see
system.mem_ctrl.wrQLenPdf::45                       0                       # What write queue length does an incoming req see
system.mem_ctrl.wrQLenPdf::46                       0                       # What write queue length does an incoming req see
system.mem_ctrl.wrQLenPdf::47                       0                       # What write queue length does an incoming req see
system.mem_ctrl.wrQLenPdf::48                       0                       # What write queue length does an incoming req see
system.mem_ctrl.wrQLenPdf::49                       0                       # What write queue length does an incoming req see
system.mem_ctrl.wrQLenPdf::50                       0                       # What write queue length does an incoming req see
system.mem_ctrl.wrQLenPdf::51                       0                       # What write queue length does an incoming req see
system.mem_ctrl.wrQLenPdf::52                       0                       # What write queue length does an incoming req see
system.mem_ctrl.wrQLenPdf::53                       0                       # What write queue length does an incoming req see
system.mem_ctrl.wrQLenPdf::54                       0                       # What write queue length does an incoming req see
system.mem_ctrl.wrQLenPdf::55                       0                       # What write queue length does an incoming req see
system.mem_ctrl.wrQLenPdf::56                       0                       # What write queue length does an incoming req see
system.mem_ctrl.wrQLenPdf::57                       0                       # What write queue length does an incoming req see
system.mem_ctrl.wrQLenPdf::58                       0                       # What write queue length does an incoming req see
system.mem_ctrl.wrQLenPdf::59                       0                       # What write queue length does an incoming req see
system.mem_ctrl.wrQLenPdf::60                       0                       # What write queue length does an incoming req see
system.mem_ctrl.wrQLenPdf::61                       0                       # What write queue length does an incoming req see
system.mem_ctrl.wrQLenPdf::62                       0                       # What write queue length does an incoming req see
system.mem_ctrl.wrQLenPdf::63                       0                       # What write queue length does an incoming req see
system.mem_ctrl.bytesPerActivate::samples          296                       # Bytes accessed per row activation
system.mem_ctrl.bytesPerActivate::mean     358.486486                       # Bytes accessed per row activation
system.mem_ctrl.bytesPerActivate::gmean    228.857131                       # Bytes accessed per row activation
system.mem_ctrl.bytesPerActivate::stdev    325.334987                       # Bytes accessed per row activation
system.mem_ctrl.bytesPerActivate::0-127            78     26.35%     26.35% # Bytes accessed per row activation
system.mem_ctrl.bytesPerActivate::128-255           66     22.30%     48.65% # Bytes accessed per row activation
system.mem_ctrl.bytesPerActivate::256-383           42     14.19%     62.84% # Bytes accessed per row activation
system.mem_ctrl.bytesPerActivate::384-511           29      9.80%     72.64% # Bytes accessed per row activation
system.mem_ctrl.bytesPerActivate::512-639           19      6.42%     79.05% # Bytes accessed per row activation
system.mem_ctrl.bytesPerActivate::640-767           12      4.05%     83.11% # Bytes accessed per row activation
system.mem_ctrl.bytesPerActivate::768-895            7      2.36%     85.47% # Bytes accessed per row activation
system.mem_ctrl.bytesPerActivate::896-1023            9      3.04%     88.51% # Bytes accessed per row activation
system.mem_ctrl.bytesPerActivate::1024-1151           34     11.49%    100.00% # Bytes accessed per row activation
system.mem_ctrl.bytesPerActivate::total           296                       # Bytes accessed per row activation
system.mem_ctrl.rdPerTurnAround::samples           47                       # Reads before turning the bus around for writes
system.mem_ctrl.rdPerTurnAround::mean       19.297872                       # Reads before turning the bus around for writes
system.mem_ctrl.rdPerTurnAround::gmean      16.981416                       # Reads before turning the bus around for writes
system.mem_ctrl.rdPerTurnAround::stdev      21.154622                       # Reads before turning the bus around for writes
system.mem_ctrl.rdPerTurnAround::8-15              16     34.04%     34.04% # Reads before turning the bus around for writes
system.mem_ctrl.rdPerTurnAround::16-23             30     63.83%     97.87% # Reads before turning the bus around for writes
system.mem_ctrl.rdPerTurnAround::160-167            1      2.13%    100.00% # Reads before turning the bus around for writes
system.mem_ctrl.rdPerTurnAround::total             47                       # Reads before turning the bus around for writes
system.mem_ctrl.wrPerTurnAround::samples           47                       # Writes before turning the bus around for reads
system.mem_ctrl.wrPerTurnAround::mean       16.574468                       # Writes before turning the bus around for reads
system.mem_ctrl.wrPerTurnAround::gmean      16.544621                       # Writes before turning the bus around for reads
system.mem_ctrl.wrPerTurnAround::stdev       1.037235                       # Writes before turning the bus around for reads
system.mem_ctrl.wrPerTurnAround::16                34     72.34%     72.34% # Writes before turning the bus around for reads
system.mem_ctrl.wrPerTurnAround::17                 3      6.38%     78.72% # Writes before turning the bus around for reads
system.mem_ctrl.wrPerTurnAround::18                 7     14.89%     93.62% # Writes before turning the bus around for reads
system.mem_ctrl.wrPerTurnAround::19                 2      4.26%     97.87% # Writes before turning the bus around for reads
system.mem_ctrl.wrPerTurnAround::20                 1      2.13%    100.00% # Writes before turning the bus around for reads
system.mem_ctrl.wrPerTurnAround::total             47                       # Writes before turning the bus around for reads
system.mem_ctrl.totQLat                      15984500                       # Total ticks spent queuing
system.mem_ctrl.totMemAccLat                 33065750                       # Total ticks spent from burst creation until serviced by the DRAM
system.mem_ctrl.totBusLat                     4555000                       # Total ticks spent in databus transfers
system.mem_ctrl.avgQLat                      17546.10                       # Average queueing delay per DRAM burst
system.mem_ctrl.avgBusLat                     5000.00                       # Average bus latency per DRAM burst
system.mem_ctrl.avgMemAccLat                 36296.10                       # Average memory access latency per DRAM burst
system.mem_ctrl.avgRdBW                        331.53                       # Average DRAM read bandwidth in MiByte/s
system.mem_ctrl.avgWrBW                        283.49                       # Average achieved write bandwidth in MiByte/s
system.mem_ctrl.avgRdBWSys                    1854.87                       # Average system read bandwidth in MiByte/s
system.mem_ctrl.avgWrBWSys                    1808.29                       # Average system write bandwidth in MiByte/s
system.mem_ctrl.peakBW                       12800.00                       # Theoretical peak bandwidth in MiByte/s
system.mem_ctrl.busUtil                          4.80                       # Data bus utilization in percentage
system.mem_ctrl.busUtilRead                      2.59                       # Data bus utilization in percentage for reads
system.mem_ctrl.busUtilWrite                     2.21                       # Data bus utilization in percentage for writes
system.mem_ctrl.avgRdQLen                        1.00                       # Average read queue length when enqueuing
system.mem_ctrl.avgWrQLen                       23.84                       # Average write queue length when enqueuing
system.mem_ctrl.readRowHits                       689                       # Number of row buffer hits during reads
system.mem_ctrl.writeRowHits                      700                       # Number of row buffer hits during writes
system.mem_ctrl.readRowHitRate                  75.63                       # Row buffer hit rate for reads
system.mem_ctrl.writeRowHitRate                 87.50                       # Row buffer hit rate for writes
system.mem_ctrl.avgGap                       17470.49                       # Average gap between requests
system.mem_ctrl.pageHitRate                     81.18                       # Row buffer hit rate, read and write combined
system.mem_ctrl_0.actEnergy                   1513680                       # Energy for activate commands per rank (pJ)
system.mem_ctrl_0.preEnergy                    796950                       # Energy for precharge commands per rank (pJ)
system.mem_ctrl_0.readEnergy                  4055520                       # Energy for read commands per rank (pJ)
system.mem_ctrl_0.writeEnergy                 2484720                       # Energy for write commands per rank (pJ)
system.mem_ctrl_0.refreshEnergy          12907440.000000                       # Energy for refresh commands per rank (pJ)
system.mem_ctrl_0.actBackEnergy              18646410                       # Energy for active background per rank (pJ)
system.mem_ctrl_0.preBackEnergy                546240                       # Energy for precharge background per rank (pJ)
system.mem_ctrl_0.actPowerDownEnergy         32320140                       # Energy for active power-down per rank (pJ)
system.mem_ctrl_0.prePowerDownEnergy         11764320                       # Energy for precharge power-down per rank (pJ)
system.mem_ctrl_0.selfRefreshEnergy           9346020                       # Energy for self refresh per rank (pJ)
system.mem_ctrl_0.totalEnergy                94381440                       # Total energy per rank (pJ)
system.mem_ctrl_0.averagePower             536.666017                       # Core power per rank (mW)
system.mem_ctrl_0.totalIdleTime             133509750                       # Total Idle time Per DRAM Rank
system.mem_ctrl_0.memoryStateTime::IDLE        889000                       # Time in different power states
system.mem_ctrl_0.memoryStateTime::REF        5478000                       # Time in different power states
system.mem_ctrl_0.memoryStateTime::SREF      32039500                       # Time in different power states
system.mem_ctrl_0.memoryStateTime::PRE_PDN     30635000                       # Time in different power states
system.mem_ctrl_0.memoryStateTime::ACT       35952000                       # Time in different power states
system.mem_ctrl_0.memoryStateTime::ACT_PDN     70872500                       # Time in different power states
system.mem_ctrl_1.actEnergy                    635460                       # Energy for activate commands per rank (pJ)
system.mem_ctrl_1.preEnergy                    326370                       # Energy for precharge commands per rank (pJ)
system.mem_ctrl_1.readEnergy                  2449020                       # Energy for read commands per rank (pJ)
system.mem_ctrl_1.writeEnergy                 1581660                       # Energy for write commands per rank (pJ)
system.mem_ctrl_1.refreshEnergy          13522080.000000                       # Energy for refresh commands per rank (pJ)
system.mem_ctrl_1.actBackEnergy              10497120                       # Energy for active background per rank (pJ)
system.mem_ctrl_1.preBackEnergy                552960                       # Energy for precharge background per rank (pJ)
system.mem_ctrl_1.actPowerDownEnergy         58963080                       # Energy for active power-down per rank (pJ)
system.mem_ctrl_1.prePowerDownEnergy          5830080                       # Energy for precharge power-down per rank (pJ)
system.mem_ctrl_1.selfRefreshEnergy           2212740                       # Energy for self refresh per rank (pJ)
system.mem_ctrl_1.totalEnergy                96570570                       # Total energy per rank (pJ)
system.mem_ctrl_1.averagePower             549.113716                       # Core power per rank (mW)
system.mem_ctrl_1.totalIdleTime             151114750                       # Total Idle time Per DRAM Rank
system.mem_ctrl_1.memoryStateTime::IDLE        804000                       # Time in different power states
system.mem_ctrl_1.memoryStateTime::REF        5726000                       # Time in different power states
system.mem_ctrl_1.memoryStateTime::SREF       6918250                       # Time in different power states
system.mem_ctrl_1.memoryStateTime::PRE_PDN     15183750                       # Time in different power states
system.mem_ctrl_1.memoryStateTime::ACT       17934250                       # Time in different power states
system.mem_ctrl_1.memoryStateTime::ACT_PDN    129299750                       # Time in different power states
system.pwrStateResidencyTicks::UNDEFINED    175866000                       # Cumulative time (in ticks) in various power states
system.cache.pwrStateResidencyTicks::UNDEFINED    175866000                       # Cumulative time (in ticks) in various power states
system.cache.hits                               11642                       # Number of hits
system.cache.misses                              5097                       # Number of misses
system.cache.missLatency::samples                5097                       # Ticks for misses to the cache
system.cache.missLatency::mean           31219.737100                       # Ticks for misses to the cache
system.cache.missLatency::gmean          27710.064012                       # Ticks for misses to the cache
system.cache.missLatency::stdev          24401.251892                       # Ticks for misses to the cache
system.cache.missLatency::0-65535                4866     95.47%     95.47% # Ticks for misses to the cache
system.cache.missLatency::65536-131071            190      3.73%     99.20% # Ticks for misses to the cache
system.cache.missLatency::131072-196607            26      0.51%     99.71% # Ticks for misses to the cache
system.cache.missLatency::196608-262143             6      0.12%     99.82% # Ticks for misses to the cache
system.cache.missLatency::262144-327679             5      0.10%     99.92% # Ticks for misses to the cache
system.cache.missLatency::327680-393215             2      0.04%     99.96% # Ticks for misses to the cache
system.cache.missLatency::393216-458751             0      0.00%     99.96% # Ticks for misses to the cache
system.cache.missLatency::458752-524287             0      0.00%     99.96% # Ticks for misses to the cache
system.cache.missLatency::524288-589823             0      0.00%     99.96% # Ticks for misses to the cache
system.cache.missLatency::589824-655359             2      0.04%    100.00% # Ticks for misses to the cache
system.cache.missLatency::655360-720895             0      0.00%    100.00% # Ticks for misses to the cache
system.cache.missLatency::720896-786431             0      0.00%    100.00% # Ticks for misses to the cache
system.cache.missLatency::786432-851967             0      0.00%    100.00% # Ticks for misses to the cache
system.cache.missLatency::851968-917503             0      0.00%    100.00% # Ticks for misses to the cache
system.cache.missLatency::917504-983039             0      0.00%    100.00% # Ticks for misses to the cache
system.cache.missLatency::983040-1.04858e+06            0      0.00%    100.00% # Ticks for misses to the cache
system.cache.missLatency::total                  5097                       # Ticks for misses to the cache
system.cache.hitRatio                        0.695502                       # The ratio of hits to the total accesses to the cache
system.cpu.dtb.fetch_hits                           0                       # ITB hits
system.cpu.dtb.fetch_misses                         0                       # ITB misses
system.cpu.dtb.fetch_acv                            0                       # ITB acv
system.cpu.dtb.fetch_accesses                       0                       # ITB accesses
system.cpu.dtb.read_hits                         2626                       # DTB read hits
system.cpu.dtb.read_misses                         10                       # DTB read misses
system.cpu.dtb.read_acv                             0                       # DTB read access violations
system.cpu.dtb.read_accesses                     2636                       # DTB read accesses
system.cpu.dtb.write_hits                        2114                       # DTB write hits
system.cpu.dtb.write_misses                         2                       # DTB write misses
system.cpu.dtb.write_acv                            0                       # DTB write access violations
system.cpu.dtb.write_accesses                    2116                       # DTB write accesses
system.cpu.dtb.data_hits                         4740                       # DTB hits
system.cpu.dtb.data_misses                         12                       # DTB misses
system.cpu.dtb.data_acv                             0                       # DTB access violations
system.cpu.dtb.data_accesses                     4752                       # DTB accesses
system.cpu.itb.fetch_hits                       12000                       # ITB hits
system.cpu.itb.fetch_misses                        19                       # ITB misses
system.cpu.itb.fetch_acv                            0                       # ITB acv
system.cpu.itb.fetch_accesses                   12019                       # ITB accesses
system.cpu.itb.read_hits                            0                       # DTB read hits
system.cpu.itb.read_misses                          0                       # DTB read misses
system.cpu.itb.read_acv                             0                       # DTB read access violations
system.cpu.itb.read_accesses                        0                       # DTB read accesses
system.cpu.itb.write_hits                           0                       # DTB write hits
system.cpu.itb.write_misses                         0                       # DTB write misses
system.cpu.itb.write_acv                            0                       # DTB write access violations
system.cpu.itb.write_accesses                       0                       # DTB write accesses
system.cpu.itb.data_hits                            0                       # DTB hits
system.cpu.itb.data_misses                          0                       # DTB misses
system.cpu.itb.data_acv                             0                       # DTB access violations
system.cpu.itb.data_accesses                        0                       # DTB accesses
system.cpu.workload.numSyscalls                    10                       # Number of system calls
system.cpu.pwrStateResidencyTicks::ON       175866000                       # Cumulative time (in ticks) in various power states
system.cpu.numCycles                           175866                       # number of cpu cycles simulated
system.cpu.numWorkItemsStarted                      0                       # number of work items this cpu started
system.cpu.numWorkItemsCompleted                    0                       # number of work items this cpu completed
system.cpu.committedInsts                       11987                       # Number of instructions committed
system.cpu.committedOps                         11987                       # Number of ops (including micro ops) committed
system.cpu.num_int_alu_accesses                 11698                       # Number of integer alu accesses
system.cpu.num_fp_alu_accesses                     16                       # Number of float alu accesses
system.cpu.num_vec_alu_accesses                     0                       # Number of vector alu accesses
system.cpu.num_func_calls                         669                       # number of times a function call or return occured
system.cpu.num_conditional_control_insts          958                       # number of instructions that are conditional controls
system.cpu.num_int_insts                        11698                       # number of integer instructions
system.cpu.num_fp_insts                            16                       # number of float instructions
system.cpu.num_vec_insts                            0                       # number of vector instructions
system.cpu.num_int_register_reads               16122                       # number of times the integer registers were read
system.cpu.num_int_register_writes               8268                       # number of times the integer registers were written
system.cpu.num_fp_register_reads                   14                       # number of times the floating registers were read
system.cpu.num_fp_register_writes                   2                       # number of times the floating registers were written
system.cpu.num_vec_register_reads                   0                       # number of times the vector registers were read
system.cpu.num_vec_register_writes                  0                       # number of times the vector registers were written
system.cpu.num_mem_refs                          4752                       # number of memory refs
system.cpu.num_load_insts                        2636                       # Number of load instructions
system.cpu.num_store_insts                       2116                       # Number of store instructions
system.cpu.num_idle_cycles                          0                       # Number of idle cycles
system.cpu.num_busy_cycles                     175866                       # Number of busy cycles
system.cpu.not_idle_fraction                        1                       # Percentage of non-idle cycles
system.cpu.idle_fraction                            0                       # Percentage of idle cycles
system.cpu.Branches                              1911                       # Number of branches fetched
system.cpu.op_class::No_OpClass                    22      0.18%      0.18% # Class of executed instruction
system.cpu.op_class::IntAlu                      7216     60.14%     60.32% # Class of executed instruction
system.cpu.op_class::IntMult                        7      0.06%     60.38% # Class of executed instruction
system.cpu.op_class::IntDiv                         0      0.00%     60.38% # Class of executed instruction
system.cpu.op_class::FloatAdd                       2      0.02%     60.40% # Class of executed instruction
system.cpu.op_class::FloatCmp                       0      0.00%     60.40% # Class of executed instruction
system.cpu.op_class::FloatCvt                       0      0.00%     60.40% # Class of executed instruction
system.cpu.op_class::FloatMult                      0      0.00%     60.40% # Class of executed instruction
system.cpu.op_class::FloatMultAcc                   0      0.00%     60.40% # Class of executed instruction
system.cpu.op_class::FloatDiv                       0      0.00%     60.40% # Class of executed instruction
system.cpu.op_class::FloatMisc                      0      0.00%     60.40% # Class of executed instruction
system.cpu.op_class::FloatSqrt                      0      0.00%     60.40% # Class of executed instruction
system.cpu.op_class::SimdAdd                        0      0.00%     60.40% # Class of executed instruction
system.cpu.op_class::SimdAddAcc                     0      0.00%     60.40% # Class of executed instruction
system.cpu.op_class::SimdAlu                        0      0.00%     60.40% # Class of executed instruction
system.cpu.op_class::SimdCmp                        0      0.00%     60.40% # Class of executed instruction
system.cpu.op_class::SimdCvt                        0      0.00%     60.40% # Class of executed instruction
system.cpu.op_class::SimdMisc                       0      0.00%     60.40% # Class of executed instruction
system.cpu.op_class::SimdMult                       0      0.00%     60.40% # Class of executed instruction
system.cpu.op_class::SimdMultAcc                    0      0.00%     60.40% # Class of executed instruction
system.cpu.op_class::SimdShift                      0      0.00%     60.40% # Class of executed instruction
system.cpu.op_class::SimdShiftAcc                   0      0.00%     60.40% # Class of executed instruction
system.cpu.op_class::SimdSqrt                       0      0.00%     60.40% # Class of executed instruction
system.cpu.op_class::SimdFloatAdd                   0      0.00%     60.40% # Class of executed instruction
system.cpu.op_class::SimdFloatAlu                   0      0.00%     60.40% # Class of executed instruction
system.cpu.op_class::SimdFloatCmp                   0      0.00%     60.40% # Class of executed instruction
system.cpu.op_class::SimdFloatCvt                   0      0.00%     60.40% # Class of executed instruction
system.cpu.op_class::SimdFloatDiv                   0      0.00%     60.40% # Class of executed instruction
system.cpu.op_class::SimdFloatMisc                  0      0.00%     60.40% # Class of executed instruction
system.cpu.op_class::SimdFloatMult                  0      0.00%     60.40% # Class of executed instruction
system.cpu.op_class::SimdFloatMultAcc               0      0.00%     60.40% # Class of executed instruction
system.cpu.op_class::SimdFloatSqrt                  0      0.00%     60.40% # Class of executed instruction
system.cpu.op_class::MemRead                     2635     21.96%     82.36% # Class of executed instruction
system.cpu.op_class::MemWrite                    2103     17.53%     99.88% # Class of executed instruction
system.cpu.op_class::FloatMemRead                   1      0.01%     99.89% # Class of executed instruction
system.cpu.op_class::FloatMemWrite                 13      0.11%    100.00% # Class of executed instruction
system.cpu.op_class::IprAccess                      0      0.00%    100.00% # Class of executed instruction
system.cpu.op_class::InstPrefetch                   0      0.00%    100.00% # Class of executed instruction
system.cpu.op_class::total                      11999                       # Class of executed instruction
system.membus.snoop_filter.tot_requests             0                       # Total number of requests made to the snoop filter.
system.membus.snoop_filter.hit_single_requests            0                       # Number of requests hitting in the snoop filter with a single holder of the requested data.
system.membus.snoop_filter.hit_multi_requests            0                       # Number of requests hitting in the snoop filter with multiple (>1) holders of the requested data.
system.membus.snoop_filter.tot_snoops               0                       # Total number of snoops made to the snoop filter.
system.membus.snoop_filter.hit_single_snoops            0                       # Number of snoops hitting in the snoop filter with a single holder of the requested data.
system.membus.snoop_filter.hit_multi_snoops            0                       # Number of snoops hitting in the snoop filter with multiple (>1) holders of the requested data.
system.membus.pwrStateResidencyTicks::UNDEFINED    175866000                       # Cumulative time (in ticks) in various power states
system.membus.trans_dist::ReadReq                5097                       # Transaction distribution
system.membus.trans_dist::ReadResp               5097                       # Transaction distribution
system.membus.trans_dist::WritebackDirty         4969                       # Transaction distribution
system.membus.pkt_count_system.cache.mem_side::system.mem_ctrl.port        15163                       # Packet count per connected master and slave (bytes)
system.membus.pkt_count::total                  15163                       # Packet count per connected master and slave (bytes)
system.membus.pkt_size_system.cache.mem_side::system.mem_ctrl.port       644224                       # Cumulative packet size per connected master and slave (bytes)
system.membus.pkt_size::total                  644224                       # Cumulative packet size per connected master and slave (bytes)
system.membus.snoops                                0                       # Total snoops (count)
system.membus.snoopTraffic                          0                       # Total snoop traffic (bytes)
system.membus.snoop_fanout::samples              5097                       # Request fanout histogram
system.membus.snoop_fanout::mean                    0                       # Request fanout histogram
system.membus.snoop_fanout::stdev                   0                       # Request fanout histogram
system.membus.snoop_fanout::underflows              0      0.00%      0.00% # Request fanout histogram
system.membus.snoop_fanout::0                    5097    100.00%    100.00% # Request fanout histogram
system.membus.snoop_fanout::overflows               0      0.00%    100.00% # Request fanout histogram
system.membus.snoop_fanout::min_value               0                       # Request fanout histogram
system.membus.snoop_fanout::max_value               0                       # Request fanout histogram
system.membus.snoop_fanout::total                5097                       # Request fanout histogram
system.membus.reqLayer0.occupancy            29942000                       # Layer occupancy (ticks)
system.membus.reqLayer0.utilization              17.0                       # Layer utilization (%)
system.membus.respLayer0.occupancy           25779250                       # Layer occupancy (ticks)
system.membus.respLayer0.utilization             14.7                       # Layer utilization (%)

---------- End Simulation Statistics   ----------
