
---------- Begin Simulation Statistics ----------
sim_seconds                                  0.000251                       # Number of seconds simulated
sim_ticks                                   251148000                       # Number of ticks simulated
final_tick                                  251148000                       # Number of ticks from beginning of simulation (restored from checkpoints and never reset)
sim_freq                                 1000000000000                       # Frequency of simulated ticks
host_inst_rate                                 254037                       # Simulator instruction rate (inst/s)
host_op_rate                                   253983                       # Simulator op (including micro ops) rate (op/s)
host_tick_rate                             5320368605                       # Simulator tick rate (ticks/s)
host_mem_usage                                6715540                       # Number of bytes of host memory used
host_seconds                                     0.05                       # Real time elapsed on the host
sim_insts                                       11987                       # Number of instructions simulated
sim_ops                                         11987                       # Number of ops (including micro ops) simulated
system.clk_domain.voltage_domain.voltage            1                       # Voltage in Volts
system.clk_domain.clock                          1000                       # Clock period in ticks
system.mem_ctrl.pwrStateResidencyTicks::UNDEFINED    251148000                       # Cumulative time (in ticks) in various power states
system.mem_ctrl.bytes_read::cpu.inst           292032                       # Number of bytes read from this memory
system.mem_ctrl.bytes_read::cpu.data           228288                       # Number of bytes read from this memory
system.mem_ctrl.bytes_read::total              520320                       # Number of bytes read from this memory
system.mem_ctrl.bytes_inst_read::cpu.inst       292032                       # Number of instructions bytes read from this memory
system.mem_ctrl.bytes_inst_read::total         292032                       # Number of instructions bytes read from this memory
system.mem_ctrl.bytes_written::writebacks       512128                       # Number of bytes written to this memory
system.mem_ctrl.bytes_written::total           512128                       # Number of bytes written to this memory
system.mem_ctrl.num_reads::cpu.inst              4563                       # Number of read requests responded to by this memory
system.mem_ctrl.num_reads::cpu.data              3567                       # Number of read requests responded to by this memory
system.mem_ctrl.num_reads::total                 8130                       # Number of read requests responded to by this memory
system.mem_ctrl.num_writes::writebacks           8002                       # Number of write requests responded to by this memory
system.mem_ctrl.num_writes::total                8002                       # Number of write requests responded to by this memory
system.mem_ctrl.bw_read::cpu.inst          1162788475                       # Total read bandwidth from this memory (bytes/s)
system.mem_ctrl.bw_read::cpu.data           908977973                       # Total read bandwidth from this memory (bytes/s)
system.mem_ctrl.bw_read::total             2071766448                       # Total read bandwidth from this memory (bytes/s)
system.mem_ctrl.bw_inst_read::cpu.inst     1162788475                       # Instruction read bandwidth from this memory (bytes/s)
system.mem_ctrl.bw_inst_read::total        1162788475                       # Instruction read bandwidth from this memory (bytes/s)
system.mem_ctrl.bw_write::writebacks       2039148231                       # Write bandwidth from this memory (bytes/s)
system.mem_ctrl.bw_write::total            2039148231                       # Write bandwidth from this memory (bytes/s)
system.mem_ctrl.bw_total::writebacks       2039148231                       # Total bandwidth to/from this memory (bytes/s)
system.mem_ctrl.bw_total::cpu.inst         1162788475                       # Total bandwidth to/from this memory (bytes/s)
system.mem_ctrl.bw_total::cpu.data          908977973                       # Total bandwidth to/from this memory (bytes/s)
system.mem_ctrl.bw_total::total            4110914680                       # Total bandwidth to/from this memory (bytes/s)
system.mem_ctrl.readReqs                         8130                       # Number of read requests accepted
system.mem_ctrl.writeReqs                        8002                       # Number of write requests accepted
system.mem_ctrl.readBursts                       8130                       # Number of DRAM read bursts, including those serviced by the write queue
system.mem_ctrl.writeBursts                      8002                       # Number of DRAM write bursts, including those merged in the write queue
system.mem_ctrl.bytesReadDRAM                   61440                       # Total number of bytes read from DRAM
system.mem_ctrl.bytesReadWrQ                   458880                       # Total number of bytes read from write queue
system.mem_ctrl.bytesWritten                    54016                       # Total number of bytes written to DRAM
system.mem_ctrl.bytesReadSys                   520320                       # Total read bytes from the system interface side
system.mem_ctrl.bytesWrittenSys                512128                       # Total written bytes from the system interface side
system.mem_ctrl.servicedByWrQ                    7170                       # Number of DRAM read bursts serviced by the write queue
system.mem_ctrl.mergedWrBursts                   7138                       # Number of DRAM write bursts merged with an existing one
system.mem_ctrl.neitherReadNorWriteReqs             0                       # Number of requests that are neither read nor write
system.mem_ctrl.perBankRdBursts::0                 84                       # Per bank write bursts
system.mem_ctrl.perBankRdBursts::1                 22                       # Per bank write bursts
system.mem_ctrl.perBankRdBursts::2                152                       # Per bank write bursts
system.mem_ctrl.perBankRdBursts::3                115                       # Per bank write bursts
system.mem_ctrl.perBankRdBursts::4                101                       # Per bank write bursts
system.mem_ctrl.perBankRdBursts::5                 20                       # Per bank write bursts
system.mem_ctrl.perBankRdBursts::6                 82                       # Per bank write bursts
system.mem_ctrl.perBankRdBursts::7                 14                       # Per bank write bursts
system.mem_ctrl.perBankRdBursts::8                  3                       # Per bank write bursts
system.mem_ctrl.perBankRdBursts::9                145                       # Per bank write bursts
system.mem_ctrl.perBankRdBursts::10                11                       # Per bank write bursts
system.mem_ctrl.perBankRdBursts::11                28                       # Per bank write bursts
system.mem_ctrl.perBankRdBursts::12                 3                       # Per bank write bursts
system.mem_ctrl.perBankRdBursts::13                37                       # Per bank write bursts
system.mem_ctrl.perBankRdBursts::14                93                       # Per bank write bursts
system.mem_ctrl.perBankRdBursts::15                50                       # Per bank write bursts
system.mem_ctrl.perBankWrBursts::0                 72                       # Per bank write bursts
system.mem_ctrl.perBankWrBursts::1                 21                       # Per bank write bursts
system.mem_ctrl.perBankWrBursts::2                119                       # Per bank write bursts
system.mem_ctrl.perBankWrBursts::3                 93                       # Per bank write bursts
system.mem_ctrl.perBankWrBursts::4                 81                       # Per bank write bursts
system.mem_ctrl.perBankWrBursts::5                  3                       # Per bank write bursts
system.mem_ctrl.perBankWrBursts::6                 83                       # Per bank write bursts
system.mem_ctrl.perBankWrBursts::7                 14                       # Per bank write bursts
system.mem_ctrl.perBankWrBursts::8                  3                       # Per bank write bursts
system.mem_ctrl.perBankWrBursts::9                144                       # Per bank write bursts
system.mem_ctrl.perBankWrBursts::10                12                       # Per bank write bursts
system.mem_ctrl.perBankWrBursts::11                30                       # Per bank write bursts
system.mem_ctrl.perBankWrBursts::12                 2                       # Per bank write bursts
system.mem_ctrl.perBankWrBursts::13                34                       # Per bank write bursts
system.mem_ctrl.perBankWrBursts::14                86                       # Per bank write bursts
system.mem_ctrl.perBankWrBursts::15                47                       # Per bank write bursts
system.mem_ctrl.numRdRetry                          0                       # Number of times read queue was full causing retry
system.mem_ctrl.numWrRetry                          0                       # Number of times write queue was full causing retry
system.mem_ctrl.totGap                      251140000                       # Total gap between requests
system.mem_ctrl.readPktSize::0                      0                       # Read request sizes (log2)
system.mem_ctrl.readPktSize::1                      0                       # Read request sizes (log2)
system.mem_ctrl.readPktSize::2                      0                       # Read request sizes (log2)
system.mem_ctrl.readPktSize::3                      0                       # Read request sizes (log2)
system.mem_ctrl.readPktSize::4                      0                       # Read request sizes (log2)
system.mem_ctrl.readPktSize::5                      0                       # Read request sizes (log2)
system.mem_ctrl.readPktSize::6                   8130                       # Read request sizes (log2)
system.mem_ctrl.writePktSize::0                     0                       # Write request sizes (log2)
system.mem_ctrl.writePktSize::1                     0                       # Write request sizes (log2)
system.mem_ctrl.writePktSize::2                     0                       # Write request sizes (log2)
system.mem_ctrl.writePktSize::3                     0                       # Write request sizes (log2)
system.mem_ctrl.writePktSize::4                     0                       # Write request sizes (log2)
system.mem_ctrl.writePktSize::5                     0                       # Write request sizes (log2)
system.mem_ctrl.writePktSize::6                  8002                       # Write request sizes (log2)
system.mem_ctrl.rdQLenPdf::0                      960                       # What read queue length does an incoming req see
system.mem_ctrl.rdQLenPdf::1                        0                       # What read queue length does an incoming req see
system.mem_ctrl.rdQLenPdf::2                        0                       # What read queue length does an incoming req see
system.mem_ctrl.rdQLenPdf::3                        0                       # What read queue length does an incoming req see
system.mem_ctrl.rdQLenPdf::4                        0                       # What read queue length does an incoming req see
system.mem_ctrl.rdQLenPdf::5                        0                       # What read queue length does an incoming req see
system.mem_ctrl.rdQLenPdf::6                        0                       # What read queue length does an incoming req see
system.mem_ctrl.rdQLenPdf::7                        0                       # What read queue length does an incoming req see
system.mem_ctrl.rdQLenPdf::8                        0                       # What read queue length does an incoming req see
system.mem_ctrl.rdQLenPdf::9                        0                       # What read queue length does an incoming req see
system.mem_ctrl.rdQLenPdf::10                       0                       # What read queue length does an incoming req see
system.mem_ctrl.rdQLenPdf::11                       0                       # What read queue length does an incoming req see
system.mem_ctrl.rdQLenPdf::12                       0                       # What read queue length does an incoming req see
system.mem_ctrl.rdQLenPdf::13                       0                       # What read queue length does an incoming req see
system.mem_ctrl.rdQLenPdf::14                       0                       # What read queue length does an incoming req see
system.mem_ctrl.rdQLenPdf::15                       0                       # What read queue length does an incoming req see
system.mem_ctrl.rdQLenPdf::16                       0                       # What read queue length does an incoming req see
system.mem_ctrl.rdQLenPdf::17                       0                       # What read queue length does an incoming req see
system.mem_ctrl.rdQLenPdf::18                       0                       # What read queue length does an incoming req see
system.mem_ctrl.rdQLenPdf::19                       0                       # What read queue length does an incoming req see
system.mem_ctrl.rdQLenPdf::20                       0                       # What read queue length does an incoming req see
system.mem_ctrl.rdQLenPdf::21                       0                       # What read queue length does an incoming req see
system.mem_ctrl.rdQLenPdf::22                       0                       # What read queue length does an incoming req see
system.mem_ctrl.rdQLenPdf::23                       0                       # What read queue length does an incoming req see
system.mem_ctrl.rdQLenPdf::24                       0                       # What read queue length does an incoming req see
system.mem_ctrl.rdQLenPdf::25                       0                       # What read queue length does an incoming req see
system.mem_ctrl.rdQLenPdf::26                       0                       # What read queue length does an incoming req see
system.mem_ctrl.rdQLenPdf::27                       0                       # What read queue length does an incoming req see
system.mem_ctrl.rdQLenPdf::28                       0                       # What read queue length does an incoming req see
system.mem_ctrl.rdQLenPdf::29                       0                       # What read queue length does an incoming req see
system.mem_ctrl.rdQLenPdf::30                       0                       # What read queue length does an incoming req see
system.mem_ctrl.rdQLenPdf::31                       0                       # What read queue length does an incoming req see
system.mem_ctrl.wrQLenPdf::0                        1                       # What write queue length does an incoming req see
system.mem_ctrl.wrQLenPdf::1                        1                       # What write queue length does an incoming req see
system.mem_ctrl.wrQLenPdf::2                        1                       # What write queue length does an incoming req see
system.mem_ctrl.wrQLenPdf::3                        1                       # What write queue length does an incoming req see
system.mem_ctrl.wrQLenPdf::4                        1                       # What write queue length does an incoming req see
system.mem_ctrl.wrQLenPdf::5                        1                       # What write queue length does an incoming req see
system.mem_ctrl.wrQLenPdf::6                        1                       # What write queue length does an incoming req see
system.mem_ctrl.wrQLenPdf::7                        1                       # What write queue length does an incoming req see
system.mem_ctrl.wrQLenPdf::8                        1                       # What write queue length does an incoming req see
system.mem_ctrl.wrQLenPdf::9                        1                       # What write queue length does an incoming req see
system.mem_ctrl.wrQLenPdf::10                       1                       # What write queue length does an incoming req see
system.mem_ctrl.wrQLenPdf::11                       1                       # What write queue length does an incoming req see
system.mem_ctrl.wrQLenPdf::12                       1                       # What write queue length does an incoming req see
system.mem_ctrl.wrQLenPdf::13                       1                       # What write queue length does an incoming req see
system.mem_ctrl.wrQLenPdf::14                       1                       # What write queue length does an incoming req see
system.mem_ctrl.wrQLenPdf::15                      21                       # What write queue length does an incoming req see
system.mem_ctrl.wrQLenPdf::16                      24                       # What write queue length does an incoming req see
system.mem_ctrl.wrQLenPdf::17                      45                       # What write queue length does an incoming req see
system.mem_ctrl.wrQLenPdf::18                      55                       # What write queue length does an incoming req see
system.mem_ctrl.wrQLenPdf::19                      52                       # What write queue length does an incoming req see
system.mem_ctrl.wrQLenPdf::20                      50                       # What write queue length does an incoming req see
system.mem_ctrl.wrQLenPdf::21                      49                       # What write queue length does an incoming req see
system.mem_ctrl.wrQLenPdf::22                      49                       # What write queue length does an incoming req see
system.mem_ctrl.wrQLenPdf::23                      62                       # What write queue length does an incoming req see
system.mem_ctrl.wrQLenPdf::24                      50                       # What write queue length does an incoming req see
system.mem_ctrl.wrQLenPdf::25                      49                       # What write queue length does an incoming req see
system.mem_ctrl.wrQLenPdf::26                      49                       # What write queue length does an incoming req see
system.mem_ctrl.wrQLenPdf::27                      49                       # What write queue length does an incoming req see
system.mem_ctrl.wrQLenPdf::28                      49                       # What write queue length does an incoming req see
system.mem_ctrl.wrQLenPdf::29                      49                       # What write queue length does an incoming req see
system.mem_ctrl.wrQLenPdf::30                      49                       # What write queue length does an incoming req see
system.mem_ctrl.wrQLenPdf::31                      49                       # What write queue length does an incoming req see
system.mem_ctrl.wrQLenPdf::32                      49                       # What write queue length does an incoming req see
system.mem_ctrl.wrQLenPdf::33                       0                       # What write queue length does an incoming req see
system.mem_ctrl.wrQLenPdf::34                       0                       # What write queue length does an incoming req see
system.mem_ctrl.wrQLenPdf::35                       0                       # What write queue length does an incoming req see
system.mem_ctrl.wrQLenPdf::36                       0                       # What write queue length does an incoming req see
system.mem_ctrl.wrQLenPdf::37                       0                       # What write queue length does an incoming req see
system.mem_ctrl.wrQLenPdf::38                       0                       # What write queue length does an incoming req see
system.mem_ctrl.wrQLenPdf::39                       0                       # What write queue length does an incoming req see
system.mem_ctrl.wrQLenPdf::40                       0                       # What write queue length does an incoming req see
system.mem_ctrl.wrQLenPdf::41                       0                       # What write queue length does an incoming req see
system.mem_ctrl.wrQLenPdf::42                       0                       # What write queue length does an incoming req see
system.mem_ctrl.wrQLenPdf::43                       0                       # What write queue length does an incoming req see
system.mem_ctrl.wrQLenPdf::44                       0                       # What write queue length does an incoming req see
system.mem_ctrl.wrQLenPdf::45                       0                       # What write queue length does an incoming req see
system.mem_ctrl.wrQLenPdf::46                       0                       # What write queue length does an incoming req see
system.mem_ctrl.wrQLenPdf::47                       0                       # What write queue length does an incoming req see
system.mem_ctrl.wrQLenPdf::48                       0                       # What write queue length does an incoming req see
system.mem_ctrl.wrQLenPdf::49                       0                       # What write queue length does an incoming req see
system.mem_ctrl.wrQLenPdf::50                       0                       # What write queue length does an incoming req see
system.mem_ctrl.wrQLenPdf::51                       0                       # What write queue length does an incoming req see
system.mem_ctrl.wrQLenPdf::52                       0                       # What write queue length does an incoming req see
system.mem_ctrl.wrQLenPdf::53                       0                       # What write queue length does an incoming req see
system.mem_ctrl.wrQLenPdf::54                       0                       # What write queue length does an incoming req see
system.mem_ctrl.wrQLenPdf::55                       0                       # What write queue length does an incoming req see
system.mem_ctrl.wrQLenPdf::56                       0                       # What write queue length does an incoming req see
system.mem_ctrl.wrQLenPdf::57                       0                       # What write queue length does an incoming req see
system.mem_ctrl.wrQLenPdf::58                       0                       # What write queue length does an incoming req see
system.mem_ctrl.wrQLenPdf::59                       0                       # What write queue length does an incoming req see
system.mem_ctrl.wrQLenPdf::60                       0                       # What write queue length does an incoming req see
system.mem_ctrl.wrQLenPdf::61                       0                       # What write queue length does an incoming req see
system.mem_ctrl.wrQLenPdf::62                       0                       # What write queue length does an incoming req see
system.mem_ctrl.wrQLenPdf::63                       0                       # What write queue length does an incoming req see
system.mem_ctrl.bytesPerActivate::samples          280                       # Bytes accessed per row activation
system.mem_ctrl.bytesPerActivate::mean     407.542857                       # Bytes accessed per row activation
system.mem_ctrl.bytesPerActivate::gmean    261.209044                       # Bytes accessed per row activation
system.mem_ctrl.bytesPerActivate::stdev    346.055735                       # Bytes accessed per row activation
system.mem_ctrl.bytesPerActivate::0-127            66     23.57%     23.57% # Bytes accessed per row activation
system.mem_ctrl.bytesPerActivate::128-255           55     19.64%     43.21% # Bytes accessed per row activation
system.mem_ctrl.bytesPerActivate::256-383           35     12.50%     55.71% # Bytes accessed per row activation
system.mem_ctrl.bytesPerActivate::384-511           28     10.00%     65.71% # Bytes accessed per row activation
system.mem_ctrl.bytesPerActivate::512-639           19      6.79%     72.50% # Bytes accessed per row activation
system.mem_ctrl.bytesPerActivate::640-767           15      5.36%     77.86% # Bytes accessed per row activation
system.mem_ctrl.bytesPerActivate::768-895           12      4.29%     82.14% # Bytes accessed per row activation
system.mem_ctrl.bytesPerActivate::896-1023            6      2.14%     84.29% # Bytes accessed per row activation
system.mem_ctrl.bytesPerActivate::1024-1151           44     15.71%    100.00% # Bytes accessed per row activation
system.mem_ctrl.bytesPerActivate::total           280                       # Bytes accessed per row activation
system.mem_ctrl.rdPerTurnAround::samples           49                       # Reads before turning the bus around for writes
system.mem_ctrl.rdPerTurnAround::mean       19.530612                       # Reads before turning the bus around for writes
system.mem_ctrl.rdPerTurnAround::gmean      17.342430                       # Reads before turning the bus around for writes
system.mem_ctrl.rdPerTurnAround::stdev      20.522449                       # Reads before turning the bus around for writes
system.mem_ctrl.rdPerTurnAround::8-15              13     26.53%     26.53% # Reads before turning the bus around for writes
system.mem_ctrl.rdPerTurnAround::16-23             35     71.43%     97.96% # Reads before turning the bus around for writes
system.mem_ctrl.rdPerTurnAround::160-167            1      2.04%    100.00% # Reads before turning the bus around for writes
system.mem_ctrl.rdPerTurnAround::total             49                       # Reads before turning the bus around for writes
system.mem_ctrl.wrPerTurnAround::samples           49                       # Writes before turning the bus around for reads
system.mem_ctrl.wrPerTurnAround::mean       17.224490                       # Writes before turning the bus around for reads
system.mem_ctrl.wrPerTurnAround::gmean      17.172576                       # Writes before turning the bus around for reads
system.mem_ctrl.wrPerTurnAround::stdev       1.373337                       # Writes before turning the bus around for reads
system.mem_ctrl.wrPerTurnAround::16                23     46.94%     46.94% # Writes before turning the bus around for reads
system.mem_ctrl.wrPerTurnAround::17                 6     12.24%     59.18% # Writes before turning the bus around for reads
system.mem_ctrl.wrPerTurnAround::18                 9     18.37%     77.55% # Writes before turning the bus around for reads
system.mem_ctrl.wrPerTurnAround::19                 9     18.37%     95.92% # Writes before turning the bus around for reads
system.mem_ctrl.wrPerTurnAround::20                 1      2.04%     97.96% # Writes before turning the bus around for reads
system.mem_ctrl.wrPerTurnAround::21                 1      2.04%    100.00% # Writes before turning the bus around for reads
system.mem_ctrl.wrPerTurnAround::total             49                       # Writes before turning the bus around for reads
system.mem_ctrl.totQLat                      16992000                       # Total ticks spent queuing
system.mem_ctrl.totMemAccLat                 34992000                       # Total ticks spent from burst creation until serviced by the DRAM
system.mem_ctrl.totBusLat                     4800000                       # Total ticks spent in databus transfers
system.mem_ctrl.avgQLat                      17700.00                       # Average queueing delay per DRAM burst
system.mem_ctrl.avgBusLat                     5000.00                       # Average bus latency per DRAM burst
system.mem_ctrl.avgMemAccLat                 36450.00                       # Average memory access latency per DRAM burst
system.mem_ctrl.avgRdBW                        244.64                       # Average DRAM read bandwidth in MiByte/s
system.mem_ctrl.avgWrBW                        215.08                       # Average achieved write bandwidth in MiByte/s
system.mem_ctrl.avgRdBWSys                    2071.77                       # Average system read bandwidth in MiByte/s
system.mem_ctrl.avgWrBWSys                    2039.15                       # Average system write bandwidth in MiByte/s
system.mem_ctrl.peakBW                       12800.00                       # Theoretical peak bandwidth in MiByte/s
system.mem_ctrl.busUtil                          3.59                       # Data bus utilization in percentage
system.mem_ctrl.busUtilRead                      1.91                       # Data bus utilization in percentage for reads
system.mem_ctrl.busUtilWrite                     1.68                       # Data bus utilization in percentage for writes
system.mem_ctrl.avgRdQLen                        1.00                       # Average read queue length when enqueuing
system.mem_ctrl.avgWrQLen                       24.59                       # Average write queue length when enqueuing
system.mem_ctrl.readRowHits                       729                       # Number of row buffer hits during reads
system.mem_ctrl.writeRowHits                      789                       # Number of row buffer hits during writes
system.mem_ctrl.readRowHitRate                  75.94                       # Row buffer hit rate for reads
system.mem_ctrl.writeRowHitRate                 91.32                       # Row buffer hit rate for writes
system.mem_ctrl.avgGap                       15567.82                       # Average gap between requests
system.mem_ctrl.pageHitRate                     83.22                       # Row buffer hit rate, read and write combined
system.mem_ctrl_0.actEnergy                   1356600                       # Energy for activate commands per rank (pJ)
system.mem_ctrl_0.preEnergy                    709665                       # Energy for precharge commands per rank (pJ)
system.mem_ctrl_0.readEnergy                  4212600                       # Energy for read commands per rank (pJ)
system.mem_ctrl_0.writeEnergy                 2536920                       # Energy for write commands per rank (pJ)
system.mem_ctrl_0.refreshEnergy          16595280.000000                       # Energy for refresh commands per rank (pJ)
system.mem_ctrl_0.actBackEnergy              19687230                       # Energy for active background per rank (pJ)
system.mem_ctrl_0.preBackEnergy                619200                       # Energy for precharge background per rank (pJ)
system.mem_ctrl_0.actPowerDownEnergy         45410190                       # Energy for active power-down per rank (pJ)
system.mem_ctrl_0.prePowerDownEnergy         18130080                       # Energy for precharge power-down per rank (pJ)
system.mem_ctrl_0.selfRefreshEnergy          15952320                       # Energy for self refresh per rank (pJ)
system.mem_ctrl_0.totalEnergy               125210085                       # Total energy per rank (pJ)
system.mem_ctrl_0.averagePower             498.549505                       # Core power per rank (mW)
system.mem_ctrl_0.totalIdleTime             206311500                       # Total Idle time Per DRAM Rank
system.mem_ctrl_0.memoryStateTime::IDLE        913000                       # Time in different power states
system.mem_ctrl_0.memoryStateTime::REF        7038000                       # Time in different power states
system.mem_ctrl_0.memoryStateTime::SREF      59564500                       # Time in different power states
system.mem_ctrl_0.memoryStateTime::PRE_PDN     47212250                       # Time in different power states
system.mem_ctrl_0.memoryStateTime::ACT       36847750                       # Time in different power states
system.mem_ctrl_0.memoryStateTime::ACT_PDN     99572500                       # Time in different power states
system.mem_ctrl_1.actEnergy                    685440                       # Energy for activate commands per rank (pJ)
system.mem_ctrl_1.preEnergy                    352935                       # Energy for precharge commands per rank (pJ)
system.mem_ctrl_1.readEnergy                  2641800                       # Energy for read commands per rank (pJ)
system.mem_ctrl_1.writeEnergy                 1868760                       # Energy for write commands per rank (pJ)
system.mem_ctrl_1.refreshEnergy          18439200.000000                       # Energy for refresh commands per rank (pJ)
system.mem_ctrl_1.actBackEnergy              14623920                       # Energy for active background per rank (pJ)
system.mem_ctrl_1.preBackEnergy                740640                       # Energy for precharge background per rank (pJ)
system.mem_ctrl_1.actPowerDownEnergy         66916290                       # Energy for active power-down per rank (pJ)
system.mem_ctrl_1.prePowerDownEnergy         15357120                       # Energy for precharge power-down per rank (pJ)
system.mem_ctrl_1.selfRefreshEnergy           8403180                       # Energy for self refresh per rank (pJ)
system.mem_ctrl_1.totalEnergy               130029285                       # Total energy per rank (pJ)
system.mem_ctrl_1.averagePower             517.738133                       # Core power per rank (mW)
system.mem_ctrl_1.totalIdleTime             216942750                       # Total Idle time Per DRAM Rank
system.mem_ctrl_1.memoryStateTime::IDLE       1104000                       # Time in different power states
system.mem_ctrl_1.memoryStateTime::REF        7812000                       # Time in different power states
system.mem_ctrl_1.memoryStateTime::SREF      30411500                       # Time in different power states
system.mem_ctrl_1.memoryStateTime::PRE_PDN     39989500                       # Time in different power states
system.mem_ctrl_1.memoryStateTime::ACT       25084750                       # Time in different power states
system.mem_ctrl_1.memoryStateTime::ACT_PDN    146746250                       # Time in different power states
system.pwrStateResidencyTicks::UNDEFINED    251148000                       # Cumulative time (in ticks) in various power states
system.cache.pwrStateResidencyTicks::UNDEFINED    251148000                       # Cumulative time (in ticks) in various power states
system.cache.hits                                8609                       # Number of hits
system.cache.misses                              8130                       # Number of misses
system.cache.missLatency::samples                8130                       # Ticks for misses to the cache
system.cache.missLatency::mean           28832.595326                       # Ticks for misses to the cache
system.cache.missLatency::gmean          26406.406266                       # Ticks for misses to the cache
system.cache.missLatency::stdev          21176.484457                       # Ticks for misses to the cache
system.cache.missLatency::0-65535                7891     97.06%     97.06% # Ticks for misses to the cache
system.cache.missLatency::65536-131071            202      2.48%     99.54% # Ticks for misses to the cache
system.cache.missLatency::131072-196607            19      0.23%     99.78% # Ticks for misses to the cache
system.cache.missLatency::196608-262143             5      0.06%     99.84% # Ticks for misses to the cache
system.cache.missLatency::262144-327679             8      0.10%     99.94% # Ticks for misses to the cache
system.cache.missLatency::327680-393215             2      0.02%     99.96% # Ticks for misses to the cache
system.cache.missLatency::393216-458751             0      0.00%     99.96% # Ticks for misses to the cache
system.cache.missLatency::458752-524287             0      0.00%     99.96% # Ticks for misses to the cache
system.cache.missLatency::524288-589823             0      0.00%     99.96% # Ticks for misses to the cache
system.cache.missLatency::589824-655359             3      0.04%    100.00% # Ticks for misses to the cache
system.cache.missLatency::655360-720895             0      0.00%    100.00% # Ticks for misses to the cache
system.cache.missLatency::720896-786431             0      0.00%    100.00% # Ticks for misses to the cache
system.cache.missLatency::786432-851967             0      0.00%    100.00% # Ticks for misses to the cache
system.cache.missLatency::851968-917503             0      0.00%    100.00% # Ticks for misses to the cache
system.cache.missLatency::917504-983039             0      0.00%    100.00% # Ticks for misses to the cache
system.cache.missLatency::983040-1.04858e+06            0      0.00%    100.00% # Ticks for misses to the cache
system.cache.missLatency::total                  8130                       # Ticks for misses to the cache
system.cache.hitRatio                        0.514308                       # The ratio of hits to the total accesses to the cache
system.cpu.dtb.fetch_hits                           0                       # ITB hits
system.cpu.dtb.fetch_misses                         0                       # ITB misses
system.cpu.dtb.fetch_acv                            0                       # ITB acv
system.cpu.dtb.fetch_accesses                       0                       # ITB accesses
system.cpu.dtb.read_hits                         2626                       # DTB read hits
system.cpu.dtb.read_misses                         10                       # DTB read misses
system.cpu.dtb.read_acv                             0                       # DTB read access violations
system.cpu.dtb.read_accesses                     2636                       # DTB read accesses
system.cpu.dtb.write_hits                        2114                       # DTB write hits
system.cpu.dtb.write_misses                         2                       # DTB write misses
system.cpu.dtb.write_acv                            0                       # DTB write access violations
system.cpu.dtb.write_accesses                    2116                       # DTB write accesses
system.cpu.dtb.data_hits                         4740                       # DTB hits
system.cpu.dtb.data_misses                         12                       # DTB misses
system.cpu.dtb.data_acv                             0                       # DTB access violations
system.cpu.dtb.data_accesses                     4752                       # DTB accesses
system.cpu.itb.fetch_hits                       12000                       # ITB hits
system.cpu.itb.fetch_misses                        19                       # ITB misses
system.cpu.itb.fetch_acv                            0                       # ITB acv
system.cpu.itb.fetch_accesses                   12019                       # ITB accesses
system.cpu.itb.read_hits                            0                       # DTB read hits
system.cpu.itb.read_misses                          0                       # DTB read misses
system.cpu.itb.read_acv                             0                       # DTB read access violations
system.cpu.itb.read_accesses                        0                       # DTB read accesses
system.cpu.itb.write_hits                           0                       # DTB write hits
system.cpu.itb.write_misses                         0                       # DTB write misses
system.cpu.itb.write_acv                            0                       # DTB write access violations
system.cpu.itb.write_accesses                       0                       # DTB write accesses
system.cpu.itb.data_hits                            0                       # DTB hits
system.cpu.itb.data_misses                          0                       # DTB misses
system.cpu.itb.data_acv                             0                       # DTB access violations
system.cpu.itb.data_accesses                        0                       # DTB accesses
system.cpu.workload.numSyscalls                    10                       # Number of system calls
system.cpu.pwrStateResidencyTicks::ON       251148000                       # Cumulative time (in ticks) in various power states
system.cpu.numCycles                           251148                       # number of cpu cycles simulated
system.cpu.numWorkItemsStarted                      0                       # number of work items this cpu started
system.cpu.numWorkItemsCompleted                    0                       # number of work items this cpu completed
system.cpu.committedInsts                       11987                       # Number of instructions committed
system.cpu.committedOps                         11987                       # Number of ops (including micro ops) committed
system.cpu.num_int_alu_accesses                 11698                       # Number of integer alu accesses
system.cpu.num_fp_alu_accesses                     16                       # Number of float alu accesses
system.cpu.num_vec_alu_accesses                     0                       # Number of vector alu accesses
system.cpu.num_func_calls                         669                       # number of times a function call or return occured
system.cpu.num_conditional_control_insts          958                       # number of instructions that are conditional controls
system.cpu.num_int_insts                        11698                       # number of integer instructions
system.cpu.num_fp_insts                            16                       # number of float instructions
system.cpu.num_vec_insts                            0                       # number of vector instructions
system.cpu.num_int_register_reads               16122                       # number of times the integer registers were read
system.cpu.num_int_register_writes               8268                       # number of times the integer registers were written
system.cpu.num_fp_register_reads                   14                       # number of times the floating registers were read
system.cpu.num_fp_register_writes                   2                       # number of times the floating registers were written
system.cpu.num_vec_register_reads                   0                       # number of times the vector registers were read
system.cpu.num_vec_register_writes                  0                       # number of times the vector registers were written
system.cpu.num_mem_refs                          4752                       # number of memory refs
system.cpu.num_load_insts                        2636                       # Number of load instructions
system.cpu.num_store_insts                       2116                       # Number of store instructions
system.cpu.num_idle_cycles                          0                       # Number of idle cycles
system.cpu.num_busy_cycles                     251148                       # Number of busy cycles
system.cpu.not_idle_fraction                        1                       # Percentage of non-idle cycles
system.cpu.idle_fraction                            0                       # Percentage of idle cycles
system.cpu.Branches                              1911                       # Number of branches fetched
system.cpu.op_class::No_OpClass                    22      0.18%      0.18% # Class of executed instruction
system.cpu.op_class::IntAlu                      7216     60.14%     60.32% # Class of executed instruction
system.cpu.op_class::IntMult                        7      0.06%     60.38% # Class of executed instruction
system.cpu.op_class::IntDiv                         0      0.00%     60.38% # Class of executed instruction
system.cpu.op_class::FloatAdd                       2      0.02%     60.40% # Class of executed instruction
system.cpu.op_class::FloatCmp                       0      0.00%     60.40% # Class of executed instruction
system.cpu.op_class::FloatCvt                       0      0.00%     60.40% # Class of executed instruction
system.cpu.op_class::FloatMult                      0      0.00%     60.40% # Class of executed instruction
system.cpu.op_class::FloatMultAcc                   0      0.00%     60.40% # Class of executed instruction
system.cpu.op_class::FloatDiv                       0      0.00%     60.40% # Class of executed instruction
system.cpu.op_class::FloatMisc                      0      0.00%     60.40% # Class of executed instruction
system.cpu.op_class::FloatSqrt                      0      0.00%     60.40% # Class of executed instruction
system.cpu.op_class::SimdAdd                        0      0.00%     60.40% # Class of executed instruction
system.cpu.op_class::SimdAddAcc                     0      0.00%     60.40% # Class of executed instruction
system.cpu.op_class::SimdAlu                        0      0.00%     60.40% # Class of executed instruction
system.cpu.op_class::SimdCmp                        0      0.00%     60.40% # Class of executed instruction
system.cpu.op_class::SimdCvt                        0      0.00%     60.40% # Class of executed instruction
system.cpu.op_class::SimdMisc                       0      0.00%     60.40% # Class of executed instruction
system.cpu.op_class::SimdMult                       0      0.00%     60.40% # Class of executed instruction
system.cpu.op_class::SimdMultAcc                    0      0.00%     60.40% # Class of executed instruction
system.cpu.op_class::SimdShift                      0      0.00%     60.40% # Class of executed instruction
system.cpu.op_class::SimdShiftAcc                   0      0.00%     60.40% # Class of executed instruction
system.cpu.op_class::SimdSqrt                       0      0.00%     60.40% # Class of executed instruction
system.cpu.op_class::SimdFloatAdd                   0      0.00%     60.40% # Class of executed instruction
system.cpu.op_class::SimdFloatAlu                   0      0.00%     60.40% # Class of executed instruction
system.cpu.op_class::SimdFloatCmp                   0      0.00%     60.40% # Class of executed instruction
system.cpu.op_class::SimdFloatCvt                   0      0.00%     60.40% # Class of executed instruction
system.cpu.op_class::SimdFloatDiv                   0      0.00%     60.40% # Class of executed instruction
system.cpu.op_class::SimdFloatMisc                  0      0.00%     60.40% # Class of executed instruction
system.cpu.op_class::SimdFloatMult                  0      0.00%     60.40% # Class of executed instruction
system.cpu.op_class::SimdFloatMultAcc               0      0.00%     60.40% # Class of executed instruction
system.cpu.op_class::SimdFloatSqrt                  0      0.00%     60.40% # Class of executed instruction
system.cpu.op_class::MemRead                     2635     21.96%     82.36% # Class of executed instruction
system.cpu.op_class::MemWrite                    2103     17.53%     99.88% # Class of executed instruction
system.cpu.op_class::FloatMemRead                   1      0.01%     99.89% # Class of executed instruction
system.cpu.op_class::FloatMemWrite                 13      0.11%    100.00% # Class of executed instruction
system.cpu.op_class::IprAccess                      0      0.00%    100.00% # Class of executed instruction
system.cpu.op_class::InstPrefetch                   0      0.00%    100.00% # Class of executed instruction
system.cpu.op_class::total                      11999                       # Class of executed instruction
system.membus.snoop_filter.tot_requests             0                       # Total number of requests made to the snoop filter.
system.membus.snoop_filter.hit_single_requests            0                       # Number of requests hitting in the snoop filter with a single holder of the requested data.
system.membus.snoop_filter.hit_multi_requests            0                       # Number of requests hitting in the snoop filter with multiple (>1) holders of the requested data.
system.membus.snoop_filter.tot_snoops               0                       # Total number of snoops made to the snoop filter.
system.membus.snoop_filter.hit_single_snoops            0                       # Number of snoops hitting in the snoop filter with a single holder of the requested data.
system.membus.snoop_filter.hit_multi_snoops            0                       # Number of snoops hitting in the snoop filter with multiple (>1) holders of the requested data.
system.membus.pwrStateResidencyTicks::UNDEFINED    251148000                       # Cumulative time (in ticks) in various power states
system.membus.trans_dist::ReadReq                8130                       # Transaction distribution
system.membus.trans_dist::ReadResp               8130                       # Transaction distribution
system.membus.trans_dist::WritebackDirty         8002                       # Transaction distribution
system.membus.pkt_count_system.cache.mem_side::system.mem_ctrl.port        24262                       # Packet count per connected master and slave (bytes)
system.membus.pkt_count::total                  24262                       # Packet count per connected master and slave (bytes)
system.membus.pkt_size_system.cache.mem_side::system.mem_ctrl.port      1032448                       # Cumulative packet size per connected master and slave (bytes)
system.membus.pkt_size::total                 1032448                       # Cumulative packet size per connected master and slave (bytes)
system.membus.snoops                                0                       # Total snoops (count)
system.membus.snoopTraffic                          0                       # Total snoop traffic (bytes)
system.membus.snoop_fanout::samples              8130                       # Request fanout histogram
system.membus.snoop_fanout::mean                    0                       # Request fanout histogram
system.membus.snoop_fanout::stdev                   0                       # Request fanout histogram
system.membus.snoop_fanout::underflows              0      0.00%      0.00% # Request fanout histogram
system.membus.snoop_fanout::0                    8130    100.00%    100.00% # Request fanout histogram
system.membus.snoop_fanout::overflows               0      0.00%    100.00% # Request fanout histogram
system.membus.snoop_fanout::min_value               0                       # Request fanout histogram
system.membus.snoop_fanout::max_value               0                       # Request fanout histogram
system.membus.snoop_fanout::total                8130                       # Request fanout histogram
system.membus.reqLayer0.occupancy            48140000                       # Layer occupancy (ticks)
system.membus.reqLayer0.utilization              19.2                       # Layer utilization (%)
system.membus.respLayer0.occupancy           40959000                       # Layer occupancy (ticks)
system.membus.respLayer0.utilization             16.3                       # Layer utilization (%)

---------- End Simulation Statistics   ----------
