
---------- Begin Simulation Statistics ----------
sim_seconds                                  0.000064                       # Number of seconds simulated
sim_ticks                                    64229000                       # Number of ticks simulated
final_tick                                   64229000                       # Number of ticks from beginning of simulation (restored from checkpoints and never reset)
sim_freq                                 1000000000000                       # Frequency of simulated ticks
host_inst_rate                                 531928                       # Simulator instruction rate (inst/s)
host_op_rate                                   531692                       # Simulator op (including micro ops) rate (op/s)
host_tick_rate                             2847913803                       # Simulator tick rate (ticks/s)
host_mem_usage                                6716572                       # Number of bytes of host memory used
host_seconds                                     0.02                       # Real time elapsed on the host
sim_insts                                       11987                       # Number of instructions simulated
sim_ops                                         11987                       # Number of ops (including micro ops) simulated
system.clk_domain.voltage_domain.voltage            1                       # Voltage in Volts
system.clk_domain.clock                          1000                       # Clock period in ticks
system.mem_ctrl.pwrStateResidencyTicks::UNDEFINED     64229000                       # Cumulative time (in ticks) in various power states
system.mem_ctrl.bytes_read::cpu.inst            26048                       # Number of bytes read from this memory
system.mem_ctrl.bytes_read::cpu.data            22592                       # Number of bytes read from this memory
system.mem_ctrl.bytes_read::total               48640                       # Number of bytes read from this memory
system.mem_ctrl.bytes_inst_read::cpu.inst        26048                       # Number of instructions bytes read from this memory
system.mem_ctrl.bytes_inst_read::total          26048                       # Number of instructions bytes read from this memory
system.mem_ctrl.bytes_written::writebacks        40448                       # Number of bytes written to this memory
system.mem_ctrl.bytes_written::total            40448                       # Number of bytes written to this memory
system.mem_ctrl.num_reads::cpu.inst               407                       # Number of read requests responded to by this memory
system.mem_ctrl.num_reads::cpu.data               353                       # Number of read requests responded to by this memory
system.mem_ctrl.num_reads::total                  760                       # Number of read requests responded to by this memory
system.mem_ctrl.num_writes::writebacks            632                       # Number of write requests responded to by this memory
system.mem_ctrl.num_writes::total                 632                       # Number of write requests responded to by this memory
system.mem_ctrl.bw_read::cpu.inst           405548895                       # Total read bandwidth from this memory (bytes/s)
system.mem_ctrl.bw_read::cpu.data           351741425                       # Total read bandwidth from this memory (bytes/s)
system.mem_ctrl.bw_read::total              757290321                       # Total read bandwidth from this memory (bytes/s)
system.mem_ctrl.bw_inst_read::cpu.inst      405548895                       # Instruction read bandwidth from this memory (bytes/s)
system.mem_ctrl.bw_inst_read::total         405548895                       # Instruction read bandwidth from this memory (bytes/s)
system.mem_ctrl.bw_write::writebacks        629746688                       # Write bandwidth from this memory (bytes/s)
system.mem_ctrl.bw_write::total             629746688                       # Write bandwidth from this memory (bytes/s)
system.mem_ctrl.bw_total::writebacks        629746688                       # Total bandwidth to/from this memory (bytes/s)
system.mem_ctrl.bw_total::cpu.inst          405548895                       # Total bandwidth to/from this memory (bytes/s)
system.mem_ctrl.bw_total::cpu.data          351741425                       # Total bandwidth to/from this memory (bytes/s)
system.mem_ctrl.bw_total::total            1387037008                       # Total bandwidth to/from this memory (bytes/s)
system.mem_ctrl.readReqs                          760                       # Number of read requests accepted
system.mem_ctrl.writeReqs                         632                       # Number of write requests accepted
system.mem_ctrl.readBursts                        760                       # Number of DRAM read bursts, including those serviced by the write queue
system.mem_ctrl.writeBursts                       632                       # Number of DRAM write bursts, including those merged in the write queue
system.mem_ctrl.bytesReadDRAM                   43904                       # Total number of bytes read from DRAM
system.mem_ctrl.bytesReadWrQ                     4736                       # Total number of bytes read from write queue
system.mem_ctrl.bytesWritten                    38016                       # Total number of bytes written to DRAM
system.mem_ctrl.bytesReadSys                    48640                       # Total read bytes from the system interface side
system.mem_ctrl.bytesWrittenSys                 40448                       # Total written bytes from the system interface side
system.mem_ctrl.servicedByWrQ                      74                       # Number of DRAM read bursts serviced by the write queue
system.mem_ctrl.mergedWrBursts                     11                       # Number of DRAM write bursts merged with an existing one
system.mem_ctrl.neitherReadNorWriteReqs             0                       # Number of requests that are neither read nor write
system.mem_ctrl.perBankRdBursts::0                 77                       # Per bank write bursts
system.mem_ctrl.perBankRdBursts::1                 19                       # Per bank write bursts
system.mem_ctrl.perBankRdBursts::2                123                       # Per bank write bursts
system.mem_ctrl.perBankRdBursts::3                111                       # Per bank write bursts
system.mem_ctrl.perBankRdBursts::4                 74                       # Per bank write bursts
system.mem_ctrl.perBankRdBursts::5                 25                       # Per bank write bursts
system.mem_ctrl.perBankRdBursts::6                 46                       # Per bank write bursts
system.mem_ctrl.perBankRdBursts::7                  5                       # Per bank write bursts
system.mem_ctrl.perBankRdBursts::8                  3                       # Per bank write bursts
system.mem_ctrl.perBankRdBursts::9                 78                       # Per bank write bursts
system.mem_ctrl.perBankRdBursts::10                 7                       # Per bank write bursts
system.mem_ctrl.perBankRdBursts::11                12                       # Per bank write bursts
system.mem_ctrl.perBankRdBursts::12                 4                       # Per bank write bursts
system.mem_ctrl.perBankRdBursts::13                26                       # Per bank write bursts
system.mem_ctrl.perBankRdBursts::14                55                       # Per bank write bursts
system.mem_ctrl.perBankRdBursts::15                21                       # Per bank write bursts
system.mem_ctrl.perBankWrBursts::0                 67                       # Per bank write bursts
system.mem_ctrl.perBankWrBursts::1                 19                       # Per bank write bursts
system.mem_ctrl.perBankWrBursts::2                114                       # Per bank write bursts
system.mem_ctrl.perBankWrBursts::3                106                       # Per bank write bursts
system.mem_ctrl.perBankWrBursts::4                 65                       # Per bank write bursts
system.mem_ctrl.perBankWrBursts::5                 23                       # Per bank write bursts
system.mem_ctrl.perBankWrBursts::6                 40                       # Per bank write bursts
system.mem_ctrl.perBankWrBursts::7                  5                       # Per bank write bursts
system.mem_ctrl.perBankWrBursts::8                  0                       # Per bank write bursts
system.mem_ctrl.perBankWrBursts::9                 84                       # Per bank write bursts
system.mem_ctrl.perBankWrBursts::10                 6                       # Per bank write bursts
system.mem_ctrl.perBankWrBursts::11                 8                       # Per bank write bursts
system.mem_ctrl.perBankWrBursts::12                 2                       # Per bank write bursts
system.mem_ctrl.perBankWrBursts::13                12                       # Per bank write bursts
system.mem_ctrl.perBankWrBursts::14                31                       # Per bank write bursts
system.mem_ctrl.perBankWrBursts::15                12                       # Per bank write bursts
system.mem_ctrl.numRdRetry                          0                       # Number of times read queue was full causing retry
system.mem_ctrl.numWrRetry                          0                       # Number of times write queue was full causing retry
system.mem_ctrl.totGap                       64221000                       # Total gap between requests
system.mem_ctrl.readPktSize::0                      0                       # Read request sizes (log2)
system.mem_ctrl.readPktSize::1                      0                       # Read request sizes (log2)
system.mem_ctrl.readPktSize::2                      0                       # Read request sizes (log2)
system.mem_ctrl.readPktSize::3                      0                       # Read request sizes (log2)
system.mem_ctrl.readPktSize::4                      0                       # Read request sizes (log2)
system.mem_ctrl.readPktSize::5                      0                       # Read request sizes (log2)
system.mem_ctrl.readPktSize::6                    760                       # Read request sizes (log2)
system.mem_ctrl.writePktSize::0                     0                       # Write request sizes (log2)
system.mem_ctrl.writePktSize::1                     0                       # Write request sizes (log2)
system.mem_ctrl.writePktSize::2                     0                       # Write request sizes (log2)
system.mem_ctrl.writePktSize::3                     0                       # Write request sizes (log2)
system.mem_ctrl.writePktSize::4                     0                       # Write request sizes (log2)
system.mem_ctrl.writePktSize::5                     0                       # Write request sizes (log2)
system.mem_ctrl.writePktSize::6                   632                       # Write request sizes (log2)
system.mem_ctrl.rdQLenPdf::0                      686                       # What read queue length does an incoming req see
system.mem_ctrl.rdQLenPdf::1                        0                       # What read queue length does an incoming req see
system.mem_ctrl.rdQLenPdf::2                        0                       # What read queue length does an incoming req see
system.mem_ctrl.rdQLenPdf::3                        0                       # What read queue length does an incoming req see
system.mem_ctrl.rdQLenPdf::4                        0                       # What read queue length does an incoming req see
system.mem_ctrl.rdQLenPdf::5                        0                       # What read queue length does an incoming req see
system.mem_ctrl.rdQLenPdf::6                        0                       # What read queue length does an incoming req see
system.mem_ctrl.rdQLenPdf::7                        0                       # What read queue length does an incoming req see
system.mem_ctrl.rdQLenPdf::8                        0                       # What read queue length does an incoming req see
system.mem_ctrl.rdQLenPdf::9                        0                       # What read queue length does an incoming req see
system.mem_ctrl.rdQLenPdf::10                       0                       # What read queue length does an incoming req see
system.mem_ctrl.rdQLenPdf::11                       0                       # What read queue length does an incoming req see
system.mem_ctrl.rdQLenPdf::12                       0                       # What read queue length does an incoming req see
system.mem_ctrl.rdQLenPdf::13                       0                       # What read queue length does an incoming req see
system.mem_ctrl.rdQLenPdf::14                       0                       # What read queue length does an incoming req see
system.mem_ctrl.rdQLenPdf::15                       0                       # What read queue length does an incoming req see
system.mem_ctrl.rdQLenPdf::16                       0                       # What read queue length does an incoming req see
system.mem_ctrl.rdQLenPdf::17                       0                       # What read queue length does an incoming req see
system.mem_ctrl.rdQLenPdf::18                       0                       # What read queue length does an incoming req see
system.mem_ctrl.rdQLenPdf::19                       0                       # What read queue length does an incoming req see
system.mem_ctrl.rdQLenPdf::20                       0                       # What read queue length does an incoming req see
system.mem_ctrl.rdQLenPdf::21                       0                       # What read queue length does an incoming req see
system.mem_ctrl.rdQLenPdf::22                       0                       # What read queue length does an incoming req see
system.mem_ctrl.rdQLenPdf::23                       0                       # What read queue length does an incoming req see
system.mem_ctrl.rdQLenPdf::24                       0                       # What read queue length does an incoming req see
system.mem_ctrl.rdQLenPdf::25                       0                       # What read queue length does an incoming req see
system.mem_ctrl.rdQLenPdf::26                       0                       # What read queue length does an incoming req see
system.mem_ctrl.rdQLenPdf::27                       0                       # What read queue length does an incoming req see
system.mem_ctrl.rdQLenPdf::28                       0                       # What read queue length does an incoming req see
system.mem_ctrl.rdQLenPdf::29                       0                       # What read queue length does an incoming req see
system.mem_ctrl.rdQLenPdf::30                       0                       # What read queue length does an incoming req see
system.mem_ctrl.rdQLenPdf::31                       0                       # What read queue length does an incoming req see
system.mem_ctrl.wrQLenPdf::0                        1                       # What write queue length does an incoming req see
system.mem_ctrl.wrQLenPdf::1                        1                       # What write queue length does an incoming req see
system.mem_ctrl.wrQLenPdf::2                        1                       # What write queue length does an incoming req see
system.mem_ctrl.wrQLenPdf::3                        1                       # What write queue length does an incoming req see
system.mem_ctrl.wrQLenPdf::4                        1                       # What write queue length does an incoming req see
system.mem_ctrl.wrQLenPdf::5                        1                       # What write queue length does an incoming req see
system.mem_ctrl.wrQLenPdf::6                        1                       # What write queue length does an incoming req see
system.mem_ctrl.wrQLenPdf::7                        1                       # What write queue length does an incoming req see
system.mem_ctrl.wrQLenPdf::8                        1                       # What write queue length does an incoming req see
system.mem_ctrl.wrQLenPdf::9                        1                       # What write queue length does an incoming req see
system.mem_ctrl.wrQLenPdf::10                       1                       # What write queue length does an incoming req see
system.mem_ctrl.wrQLenPdf::11                       1                       # What write queue length does an incoming req see
system.mem_ctrl.wrQLenPdf::12                       1                       # What write queue length does an incoming req see
system.mem_ctrl.wrQLenPdf::13                       1                       # What write queue length does an incoming req see
system.mem_ctrl.wrQLenPdf::14                       1                       # What write queue length does an incoming req see
system.mem_ctrl.wrQLenPdf::15                       2                       # What write queue length does an incoming req see
system.mem_ctrl.wrQLenPdf::16                       2                       # What write queue length does an incoming req see
system.mem_ctrl.wrQLenPdf::17                      36                       # What write queue length does an incoming req see
system.mem_ctrl.wrQLenPdf::18                      38                       # What write queue length does an incoming req see
system.mem_ctrl.wrQLenPdf::19                      38                       # What write queue length does an incoming req see
system.mem_ctrl.wrQLenPdf::20                      38                       # What write queue length does an incoming req see
system.mem_ctrl.wrQLenPdf::21                      38                       # What write queue length does an incoming req see
system.mem_ctrl.wrQLenPdf::22                      38                       # What write queue length does an incoming req see
system.mem_ctrl.wrQLenPdf::23                      38                       # What write queue length does an incoming req see
system.mem_ctrl.wrQLenPdf::24                      40                       # What write queue length does an incoming req see
system.mem_ctrl.wrQLenPdf::25                      38                       # What write queue length does an incoming req see
system.mem_ctrl.wrQLenPdf::26                      38                       # What write queue length does an incoming req see
system.mem_ctrl.wrQLenPdf::27                      37                       # What write queue length does an incoming req see
system.mem_ctrl.wrQLenPdf::28                      37                       # What write queue length does an incoming req see
system.mem_ctrl.wrQLenPdf::29                      37                       # What write queue length does an incoming req see
system.mem_ctrl.wrQLenPdf::30                      37                       # What write queue length does an incoming req see
system.mem_ctrl.wrQLenPdf::31                      37                       # What write queue length does an incoming req see
system.mem_ctrl.wrQLenPdf::32                      37                       # What write queue length does an incoming req see
system.mem_ctrl.wrQLenPdf::33                       0                       # What write queue length does an incoming req see
system.mem_ctrl.wrQLenPdf::34                       0                       # What write queue length does an incoming req see
system.mem_ctrl.wrQLenPdf::35                       0                       # What write queue length does an incoming req see
system.mem_ctrl.wrQLenPdf::36                       0                       # What write queue length does an incoming req see
system.mem_ctrl.wrQLenPdf::37                       0                       # What write queue length does an incoming req see
system.mem_ctrl.wrQLenPdf::38                       0                       # What write queue length does an incoming req see
system.mem_ctrl.wrQLenPdf::39                       0                       # What write queue length does an incoming req see
system.mem_ctrl.wrQLenPdf::40                       0                       # What write queue length does an incoming req see
system.mem_ctrl.wrQLenPdf::41                       0                       # What write queue length does an incoming req see
system.mem_ctrl.wrQLenPdf::42                       0                       # What write queue length does an incoming req see
system.mem_ctrl.wrQLenPdf::43                       0                       # What write queue length does an incoming req see
system.mem_ctrl.wrQLenPdf::44                       0                       # What write queue length does an incoming req see
system.mem_ctrl.wrQLenPdf::45                       0                       # What write queue length does an incoming req see
system.mem_ctrl.wrQLenPdf::46                       0                       # What write queue length does an incoming req see
system.mem_ctrl.wrQLenPdf::47                       0                       # What write queue length does an incoming req see
system.mem_ctrl.wrQLenPdf::48                       0                       # What write queue length does an incoming req see
system.mem_ctrl.wrQLenPdf::49                       0                       # What write queue length does an incoming req see
system.mem_ctrl.wrQLenPdf::50                       0                       # What write queue length does an incoming req see
system.mem_ctrl.wrQLenPdf::51                       0                       # What write queue length does an incoming req see
system.mem_ctrl.wrQLenPdf::52                       0                       # What write queue length does an incoming req see
system.mem_ctrl.wrQLenPdf::53                       0                       # What write queue length does an incoming req see
system.mem_ctrl.wrQLenPdf::54                       0                       # What write queue length does an incoming req see
system.mem_ctrl.wrQLenPdf::55                       0                       # What write queue length does an incoming req see
system.mem_ctrl.wrQLenPdf::56                       0                       # What write queue length does an incoming req see
system.mem_ctrl.wrQLenPdf::57                       0                       # What write queue length does an incoming req see
system.mem_ctrl.wrQLenPdf::58                       0                       # What write queue length does an incoming req see
system.mem_ctrl.wrQLenPdf::59                       0                       # What write queue length does an incoming req see
system.mem_ctrl.wrQLenPdf::60                       0                       # What write queue length does an incoming req see
system.mem_ctrl.wrQLenPdf::61                       0                       # What write queue length does an incoming req see
system.mem_ctrl.wrQLenPdf::62                       0                       # What write queue length does an incoming req see
system.mem_ctrl.wrQLenPdf::63                       0                       # What write queue length does an incoming req see
system.mem_ctrl.bytesPerActivate::samples          232                       # Bytes accessed per row activation
system.mem_ctrl.bytesPerActivate::mean     342.896552                       # Bytes accessed per row activation
system.mem_ctrl.bytesPerActivate::gmean    214.043159                       # Bytes accessed per row activation
system.mem_ctrl.bytesPerActivate::stdev    324.137574                       # Bytes accessed per row activation
system.mem_ctrl.bytesPerActivate::0-127            68     29.31%     29.31% # Bytes accessed per row activation
system.mem_ctrl.bytesPerActivate::128-255           56     24.14%     53.45% # Bytes accessed per row activation
system.mem_ctrl.bytesPerActivate::256-383           29     12.50%     65.95% # Bytes accessed per row activation
system.mem_ctrl.bytesPerActivate::384-511           17      7.33%     73.28% # Bytes accessed per row activation
system.mem_ctrl.bytesPerActivate::512-639           15      6.47%     79.74% # Bytes accessed per row activation
system.mem_ctrl.bytesPerActivate::640-767            6      2.59%     82.33% # Bytes accessed per row activation
system.mem_ctrl.bytesPerActivate::768-895           12      5.17%     87.50% # Bytes accessed per row activation
system.mem_ctrl.bytesPerActivate::896-1023            4      1.72%     89.22% # Bytes accessed per row activation
system.mem_ctrl.bytesPerActivate::1024-1151           25     10.78%    100.00% # Bytes accessed per row activation
system.mem_ctrl.bytesPerActivate::total           232                       # Bytes accessed per row activation
system.mem_ctrl.rdPerTurnAround::samples           37                       # Reads before turning the bus around for writes
system.mem_ctrl.rdPerTurnAround::mean       18.297297                       # Reads before turning the bus around for writes
system.mem_ctrl.rdPerTurnAround::gmean      15.122240                       # Reads before turning the bus around for writes
system.mem_ctrl.rdPerTurnAround::stdev      24.195804                       # Reads before turning the bus around for writes
system.mem_ctrl.rdPerTurnAround::0-7                1      2.70%      2.70% # Reads before turning the bus around for writes
system.mem_ctrl.rdPerTurnAround::8-15              24     64.86%     67.57% # Reads before turning the bus around for writes
system.mem_ctrl.rdPerTurnAround::16-23             11     29.73%     97.30% # Reads before turning the bus around for writes
system.mem_ctrl.rdPerTurnAround::160-167            1      2.70%    100.00% # Reads before turning the bus around for writes
system.mem_ctrl.rdPerTurnAround::total             37                       # Reads before turning the bus around for writes
system.mem_ctrl.wrPerTurnAround::samples           37                       # Writes before turning the bus around for reads
system.mem_ctrl.wrPerTurnAround::mean       16.054054                       # Writes before turning the bus around for reads
system.mem_ctrl.wrPerTurnAround::gmean      16.051014                       # Writes before turning the bus around for reads
system.mem_ctrl.wrPerTurnAround::stdev       0.328798                       # Writes before turning the bus around for reads
system.mem_ctrl.wrPerTurnAround::16                36     97.30%     97.30% # Writes before turning the bus around for reads
system.mem_ctrl.wrPerTurnAround::18                 1      2.70%    100.00% # Writes before turning the bus around for reads
system.mem_ctrl.wrPerTurnAround::total             37                       # Writes before turning the bus around for reads
system.mem_ctrl.totQLat                      11829500                       # Total ticks spent queuing
system.mem_ctrl.totMemAccLat                 24692000                       # Total ticks spent from burst creation until serviced by the DRAM
system.mem_ctrl.totBusLat                     3430000                       # Total ticks spent in databus transfers
system.mem_ctrl.avgQLat                      17244.17                       # Average queueing delay per DRAM burst
system.mem_ctrl.avgBusLat                     5000.00                       # Average bus latency per DRAM burst
system.mem_ctrl.avgMemAccLat                 35994.17                       # Average memory access latency per DRAM burst
system.mem_ctrl.avgRdBW                        683.55                       # Average DRAM read bandwidth in MiByte/s
system.mem_ctrl.avgWrBW                        591.88                       # Average achieved write bandwidth in MiByte/s
system.mem_ctrl.avgRdBWSys                     757.29                       # Average system read bandwidth in MiByte/s
system.mem_ctrl.avgWrBWSys                     629.75                       # Average system write bandwidth in MiByte/s
system.mem_ctrl.peakBW                       12800.00                       # Theoretical peak bandwidth in MiByte/s
system.mem_ctrl.busUtil                          9.96                       # Data bus utilization in percentage
system.mem_ctrl.busUtilRead                      5.34                       # Data bus utilization in percentage for reads
system.mem_ctrl.busUtilWrite                     4.62                       # Data bus utilization in percentage for writes
system.mem_ctrl.avgRdQLen                        1.00                       # Average read queue length when enqueuing
system.mem_ctrl.avgWrQLen                       21.82                       # Average write queue length when enqueuing
system.mem_ctrl.readRowHits                       519                       # Number of row buffer hits during reads
system.mem_ctrl.writeRowHits                      522                       # Number of row buffer hits during writes
system.mem_ctrl.readRowHitRate                  75.66                       # Row buffer hit rate for reads
system.mem_ctrl.writeRowHitRate                 84.06                       # Row buffer hit rate for writes
system.mem_ctrl.avgGap                       46135.78                       # Average gap between requests
system.mem_ctrl.pageHitRate                     79.65                       # Row buffer hit rate, read and write combined
system.mem_ctrl_0.actEnergy                   1356600                       # Energy for activate commands per rank (pJ)
system.mem_ctrl_0.preEnergy                    713460                       # Energy for precharge commands per rank (pJ)
system.mem_ctrl_0.readEnergy                  3427200                       # Energy for read commands per rank (pJ)
system.mem_ctrl_0.writeEnergy                 2291580                       # Energy for write commands per rank (pJ)
system.mem_ctrl_0.refreshEnergy          4917120.000000                       # Energy for refresh commands per rank (pJ)
system.mem_ctrl_0.actBackEnergy              11594370                       # Energy for active background per rank (pJ)
system.mem_ctrl_0.preBackEnergy                103680                       # Energy for precharge background per rank (pJ)
system.mem_ctrl_0.actPowerDownEnergy         15959430                       # Energy for active power-down per rank (pJ)
system.mem_ctrl_0.prePowerDownEnergy          1357440                       # Energy for precharge power-down per rank (pJ)
system.mem_ctrl_0.selfRefreshEnergy                 0                       # Energy for self refresh per rank (pJ)
system.mem_ctrl_0.totalEnergy                41720880                       # Total energy per rank (pJ)
system.mem_ctrl_0.averagePower             649.554414                       # Core power per rank (mW)
system.mem_ctrl_0.totalIdleTime              38491000                       # Total Idle time Per DRAM Rank
system.mem_ctrl_0.memoryStateTime::IDLE         49000                       # Time in different power states
system.mem_ctrl_0.memoryStateTime::REF        2080000                       # Time in different power states
system.mem_ctrl_0.memoryStateTime::SREF             0                       # Time in different power states
system.mem_ctrl_0.memoryStateTime::PRE_PDN      3531250                       # Time in different power states
system.mem_ctrl_0.memoryStateTime::ACT       23571750                       # Time in different power states
system.mem_ctrl_0.memoryStateTime::ACT_PDN     34997000                       # Time in different power states
system.mem_ctrl_1.actEnergy                    349860                       # Energy for activate commands per rank (pJ)
system.mem_ctrl_1.preEnergy                    166980                       # Energy for precharge commands per rank (pJ)
system.mem_ctrl_1.readEnergy                  1470840                       # Energy for read commands per rank (pJ)
system.mem_ctrl_1.writeEnergy                  809100                       # Energy for write commands per rank (pJ)
system.mem_ctrl_1.refreshEnergy          4917120.000000                       # Energy for refresh commands per rank (pJ)
system.mem_ctrl_1.actBackEnergy               8358480                       # Energy for active background per rank (pJ)
system.mem_ctrl_1.preBackEnergy                273120                       # Energy for precharge background per rank (pJ)
system.mem_ctrl_1.actPowerDownEnergy         19295070                       # Energy for active power-down per rank (pJ)
system.mem_ctrl_1.prePowerDownEnergy          1104000                       # Energy for precharge power-down per rank (pJ)
system.mem_ctrl_1.selfRefreshEnergy                 0                       # Energy for self refresh per rank (pJ)
system.mem_ctrl_1.totalEnergy                36744570                       # Total energy per rank (pJ)
system.mem_ctrl_1.averagePower             572.078001                       # Core power per rank (mW)
system.mem_ctrl_1.totalIdleTime              44943750                       # Total Idle time Per DRAM Rank
system.mem_ctrl_1.memoryStateTime::IDLE        462000                       # Time in different power states
system.mem_ctrl_1.memoryStateTime::REF        2080000                       # Time in different power states
system.mem_ctrl_1.memoryStateTime::SREF             0                       # Time in different power states
system.mem_ctrl_1.memoryStateTime::PRE_PDN      2874250                       # Time in different power states
system.mem_ctrl_1.memoryStateTime::ACT       16491000                       # Time in different power states
system.mem_ctrl_1.memoryStateTime::ACT_PDN     42321750                       # Time in different power states
system.pwrStateResidencyTicks::UNDEFINED     64229000                       # Cumulative time (in ticks) in various power states
system.cache.pwrStateResidencyTicks::UNDEFINED     64229000                       # Cumulative time (in ticks) in various power states
system.cache.hits                               15979                       # Number of hits
system.cache.misses                               760                       # Number of misses
system.cache.missLatency::samples                 760                       # Ticks for misses to the cache
system.cache.missLatency::mean           62486.842105                       # Ticks for misses to the cache
system.cache.missLatency::gmean          56666.886786                       # Ticks for misses to the cache
system.cache.missLatency::stdev          34895.361528                       # Ticks for misses to the cache
system.cache.missLatency::0-32767                  74      9.74%      9.74% # Ticks for misses to the cache
system.cache.missLatency::32768-65535             511     67.24%     76.97% # Ticks for misses to the cache
system.cache.missLatency::65536-98303             132     17.37%     94.34% # Ticks for misses to the cache
system.cache.missLatency::98304-131071             15      1.97%     96.32% # Ticks for misses to the cache
system.cache.missLatency::131072-163839            14      1.84%     98.16% # Ticks for misses to the cache
system.cache.missLatency::163840-196607             5      0.66%     98.82% # Ticks for misses to the cache
system.cache.missLatency::196608-229375             1      0.13%     98.95% # Ticks for misses to the cache
system.cache.missLatency::229376-262143             0      0.00%     98.95% # Ticks for misses to the cache
system.cache.missLatency::262144-294911             3      0.39%     99.34% # Ticks for misses to the cache
system.cache.missLatency::294912-327679             4      0.53%     99.87% # Ticks for misses to the cache
system.cache.missLatency::327680-360447             1      0.13%    100.00% # Ticks for misses to the cache
system.cache.missLatency::360448-393215             0      0.00%    100.00% # Ticks for misses to the cache
system.cache.missLatency::393216-425983             0      0.00%    100.00% # Ticks for misses to the cache
system.cache.missLatency::425984-458751             0      0.00%    100.00% # Ticks for misses to the cache
system.cache.missLatency::458752-491519             0      0.00%    100.00% # Ticks for misses to the cache
system.cache.missLatency::491520-524287             0      0.00%    100.00% # Ticks for misses to the cache
system.cache.missLatency::total                   760                       # Ticks for misses to the cache
system.cache.hitRatio                        0.954597                       # The ratio of hits to the total accesses to the cache
system.cpu.dtb.fetch_hits                           0                       # ITB hits
system.cpu.dtb.fetch_misses                         0                       # ITB misses
system.cpu.dtb.fetch_acv                            0                       # ITB acv
system.cpu.dtb.fetch_accesses                       0                       # ITB accesses
system.cpu.dtb.read_hits                         2626                       # DTB read hits
system.cpu.dtb.read_misses                         10                       # DTB read misses
system.cpu.dtb.read_acv                             0                       # DTB read access violations
system.cpu.dtb.read_accesses                     2636                       # DTB read accesses
system.cpu.dtb.write_hits                        2114                       # DTB write hits
system.cpu.dtb.write_misses                         2                       # DTB write misses
system.cpu.dtb.write_acv                            0                       # DTB write access violations
system.cpu.dtb.write_accesses                    2116                       # DTB write accesses
system.cpu.dtb.data_hits                         4740                       # DTB hits
system.cpu.dtb.data_misses                         12                       # DTB misses
system.cpu.dtb.data_acv                             0                       # DTB access violations
system.cpu.dtb.data_accesses                     4752                       # DTB accesses
system.cpu.itb.fetch_hits                       12000                       # ITB hits
system.cpu.itb.fetch_misses                        19                       # ITB misses
system.cpu.itb.fetch_acv                            0                       # ITB acv
system.cpu.itb.fetch_accesses                   12019                       # ITB accesses
system.cpu.itb.read_hits                            0                       # DTB read hits
system.cpu.itb.read_misses                          0                       # DTB read misses
system.cpu.itb.read_acv                             0                       # DTB read access violations
system.cpu.itb.read_accesses                        0                       # DTB read accesses
system.cpu.itb.write_hits                           0                       # DTB write hits
system.cpu.itb.write_misses                         0                       # DTB write misses
system.cpu.itb.write_acv                            0                       # DTB write access violations
system.cpu.itb.write_accesses                       0                       # DTB write accesses
system.cpu.itb.data_hits                            0                       # DTB hits
system.cpu.itb.data_misses                          0                       # DTB misses
system.cpu.itb.data_acv                             0                       # DTB access violations
system.cpu.itb.data_accesses                        0                       # DTB accesses
system.cpu.workload.numSyscalls                    10                       # Number of system calls
system.cpu.pwrStateResidencyTicks::ON        64229000                       # Cumulative time (in ticks) in various power states
system.cpu.numCycles                            64229                       # number of cpu cycles simulated
system.cpu.numWorkItemsStarted                      0                       # number of work items this cpu started
system.cpu.numWorkItemsCompleted                    0                       # number of work items this cpu completed
system.cpu.committedInsts                       11987                       # Number of instructions committed
system.cpu.committedOps                         11987                       # Number of ops (including micro ops) committed
system.cpu.num_int_alu_accesses                 11698                       # Number of integer alu accesses
system.cpu.num_fp_alu_accesses                     16                       # Number of float alu accesses
system.cpu.num_vec_alu_accesses                     0                       # Number of vector alu accesses
system.cpu.num_func_calls                         669                       # number of times a function call or return occured
system.cpu.num_conditional_control_insts          958                       # number of instructions that are conditional controls
system.cpu.num_int_insts                        11698                       # number of integer instructions
system.cpu.num_fp_insts                            16                       # number of float instructions
system.cpu.num_vec_insts                            0                       # number of vector instructions
system.cpu.num_int_register_reads               16122                       # number of times the integer registers were read
system.cpu.num_int_register_writes               8268                       # number of times the integer registers were written
system.cpu.num_fp_register_reads                   14                       # number of times the floating registers were read
system.cpu.num_fp_register_writes                   2                       # number of times the floating registers were written
system.cpu.num_vec_register_reads                   0                       # number of times the vector registers were read
system.cpu.num_vec_register_writes                  0                       # number of times the vector registers were written
system.cpu.num_mem_refs                          4752                       # number of memory refs
system.cpu.num_load_insts                        2636                       # Number of load instructions
system.cpu.num_store_insts                       2116                       # Number of store instructions
system.cpu.num_idle_cycles                          0                       # Number of idle cycles
system.cpu.num_busy_cycles                      64229                       # Number of busy cycles
system.cpu.not_idle_fraction                        1                       # Percentage of non-idle cycles
system.cpu.idle_fraction                            0                       # Percentage of idle cycles
system.cpu.Branches                              1911                       # Number of branches fetched
system.cpu.op_class::No_OpClass                    22      0.18%      0.18% # Class of executed instruction
system.cpu.op_class::IntAlu                      7216     60.14%     60.32% # Class of executed instruction
system.cpu.op_class::IntMult                        7      0.06%     60.38% # Class of executed instruction
system.cpu.op_class::IntDiv                         0      0.00%     60.38% # Class of executed instruction
system.cpu.op_class::FloatAdd                       2      0.02%     60.40% # Class of executed instruction
system.cpu.op_class::FloatCmp                       0      0.00%     60.40% # Class of executed instruction
system.cpu.op_class::FloatCvt                       0      0.00%     60.40% # Class of executed instruction
system.cpu.op_class::FloatMult                      0      0.00%     60.40% # Class of executed instruction
system.cpu.op_class::FloatMultAcc                   0      0.00%     60.40% # Class of executed instruction
system.cpu.op_class::FloatDiv                       0      0.00%     60.40% # Class of executed instruction
system.cpu.op_class::FloatMisc                      0      0.00%     60.40% # Class of executed instruction
system.cpu.op_class::FloatSqrt                      0      0.00%     60.40% # Class of executed instruction
system.cpu.op_class::SimdAdd                        0      0.00%     60.40% # Class of executed instruction
system.cpu.op_class::SimdAddAcc                     0      0.00%     60.40% # Class of executed instruction
system.cpu.op_class::SimdAlu                        0      0.00%     60.40% # Class of executed instruction
system.cpu.op_class::SimdCmp                        0      0.00%     60.40% # Class of executed instruction
system.cpu.op_class::SimdCvt                        0      0.00%     60.40% # Class of executed instruction
system.cpu.op_class::SimdMisc                       0      0.00%     60.40% # Class of executed instruction
system.cpu.op_class::SimdMult                       0      0.00%     60.40% # Class of executed instruction
system.cpu.op_class::SimdMultAcc                    0      0.00%     60.40% # Class of executed instruction
system.cpu.op_class::SimdShift                      0      0.00%     60.40% # Class of executed instruction
system.cpu.op_class::SimdShiftAcc                   0      0.00%     60.40% # Class of executed instruction
system.cpu.op_class::SimdSqrt                       0      0.00%     60.40% # Class of executed instruction
system.cpu.op_class::SimdFloatAdd                   0      0.00%     60.40% # Class of executed instruction
system.cpu.op_class::SimdFloatAlu                   0      0.00%     60.40% # Class of executed instruction
system.cpu.op_class::SimdFloatCmp                   0      0.00%     60.40% # Class of executed instruction
system.cpu.op_class::SimdFloatCvt                   0      0.00%     60.40% # Class of executed instruction
system.cpu.op_class::SimdFloatDiv                   0      0.00%     60.40% # Class of executed instruction
system.cpu.op_class::SimdFloatMisc                  0      0.00%     60.40% # Class of executed instruction
system.cpu.op_class::SimdFloatMult                  0      0.00%     60.40% # Class of executed instruction
system.cpu.op_class::SimdFloatMultAcc               0      0.00%     60.40% # Class of executed instruction
system.cpu.op_class::SimdFloatSqrt                  0      0.00%     60.40% # Class of executed instruction
system.cpu.op_class::MemRead                     2635     21.96%     82.36% # Class of executed instruction
system.cpu.op_class::MemWrite                    2103     17.53%     99.88% # Class of executed instruction
system.cpu.op_class::FloatMemRead                   1      0.01%     99.89% # Class of executed instruction
system.cpu.op_class::FloatMemWrite                 13      0.11%    100.00% # Class of executed instruction
system.cpu.op_class::IprAccess                      0      0.00%    100.00% # Class of executed instruction
system.cpu.op_class::InstPrefetch                   0      0.00%    100.00% # Class of executed instruction
system.cpu.op_class::total                      11999                       # Class of executed instruction
system.membus.snoop_filter.tot_requests             0                       # Total number of requests made to the snoop filter.
system.membus.snoop_filter.hit_single_requests            0                       # Number of requests hitting in the snoop filter with a single holder of the requested data.
system.membus.snoop_filter.hit_multi_requests            0                       # Number of requests hitting in the snoop filter with multiple (>1) holders of the requested data.
system.membus.snoop_filter.tot_snoops               0                       # Total number of snoops made to the snoop filter.
system.membus.snoop_filter.hit_single_snoops            0                       # Number of snoops hitting in the snoop filter with a single holder of the requested data.
system.membus.snoop_filter.hit_multi_snoops            0                       # Number of snoops hitting in the snoop filter with multiple (>1) holders of the requested data.
system.membus.pwrStateResidencyTicks::UNDEFINED     64229000                       # Cumulative time (in ticks) in various power states
system.membus.trans_dist::ReadReq                 760                       # Transaction distribution
system.membus.trans_dist::ReadResp                760                       # Transaction distribution
system.membus.trans_dist::WritebackDirty          632                       # Transaction distribution
system.membus.pkt_count_system.cache.mem_side::system.mem_ctrl.port         2152                       # Packet count per connected master and slave (bytes)
system.membus.pkt_count::total                   2152                       # Packet count per connected master and slave (bytes)
system.membus.pkt_size_system.cache.mem_side::system.mem_ctrl.port        89088                       # Cumulative packet size per connected master and slave (bytes)
system.membus.pkt_size::total                   89088                       # Cumulative packet size per connected master and slave (bytes)
system.membus.snoops                                0                       # Total snoops (count)
system.membus.snoopTraffic                          0                       # Total snoop traffic (bytes)
system.membus.snoop_fanout::samples               760                       # Request fanout histogram
system.membus.snoop_fanout::mean                    0                       # Request fanout histogram
system.membus.snoop_fanout::stdev                   0                       # Request fanout histogram
system.membus.snoop_fanout::underflows              0      0.00%      0.00% # Request fanout histogram
system.membus.snoop_fanout::0                     760    100.00%    100.00% # Request fanout histogram
system.membus.snoop_fanout::overflows               0      0.00%    100.00% # Request fanout histogram
system.membus.snoop_fanout::min_value               0                       # Request fanout histogram
system.membus.snoop_fanout::max_value               0                       # Request fanout histogram
system.membus.snoop_fanout::total                 760                       # Request fanout histogram
system.membus.reqLayer0.occupancy             3920000                       # Layer occupancy (ticks)
system.membus.reqLayer0.utilization               6.1                       # Layer utilization (%)
system.membus.respLayer0.occupancy            4027000                       # Layer occupancy (ticks)
system.membus.respLayer0.utilization              6.3                       # Layer utilization (%)

---------- End Simulation Statistics   ----------
