
---------- Begin Simulation Statistics ----------
sim_seconds                                  0.000140                       # Number of seconds simulated
sim_ticks                                   140323000                       # Number of ticks simulated
final_tick                                  140323000                       # Number of ticks from beginning of simulation (restored from checkpoints and never reset)
sim_freq                                 1000000000000                       # Frequency of simulated ticks
host_inst_rate                                 289929                       # Simulator instruction rate (inst/s)
host_op_rate                                   289831                       # Simulator op (including micro ops) rate (op/s)
host_tick_rate                             5236519013                       # Simulator tick rate (ticks/s)
host_mem_usage                                6697108                       # Number of bytes of host memory used
host_seconds                                     0.03                       # Real time elapsed on the host
sim_insts                                        7764                       # Number of instructions simulated
sim_ops                                          7764                       # Number of ops (including micro ops) simulated
system.clk_domain.voltage_domain.voltage            1                       # Voltage in Volts
system.clk_domain.clock                          1000                       # Clock period in ticks
system.mem_ctrl.pwrStateResidencyTicks::UNDEFINED    140323000                       # Cumulative time (in ticks) in various power states
system.mem_ctrl.bytes_read::cpu.inst           169280                       # Number of bytes read from this memory
system.mem_ctrl.bytes_read::cpu.data           107392                       # Number of bytes read from this memory
system.mem_ctrl.bytes_read::total              276672                       # Number of bytes read from this memory
system.mem_ctrl.bytes_inst_read::cpu.inst       169280                       # Number of instructions bytes read from this memory
system.mem_ctrl.bytes_inst_read::total         169280                       # Number of instructions bytes read from this memory
system.mem_ctrl.bytes_written::writebacks       268480                       # Number of bytes written to this memory
system.mem_ctrl.bytes_written::total           268480                       # Number of bytes written to this memory
system.mem_ctrl.num_reads::cpu.inst              2645                       # Number of read requests responded to by this memory
system.mem_ctrl.num_reads::cpu.data              1678                       # Number of read requests responded to by this memory
system.mem_ctrl.num_reads::total                 4323                       # Number of read requests responded to by this memory
system.mem_ctrl.num_writes::writebacks           4195                       # Number of write requests responded to by this memory
system.mem_ctrl.num_writes::total                4195                       # Number of write requests responded to by this memory
system.mem_ctrl.bw_read::cpu.inst          1206359613                       # Total read bandwidth from this memory (bytes/s)
system.mem_ctrl.bw_read::cpu.data           765320012                       # Total read bandwidth from this memory (bytes/s)
system.mem_ctrl.bw_read::total             1971679625                       # Total read bandwidth from this memory (bytes/s)
system.mem_ctrl.bw_inst_read::cpu.inst     1206359613                       # Instruction read bandwidth from this memory (bytes/s)
system.mem_ctrl.bw_inst_read::total        1206359613                       # Instruction read bandwidth from this memory (bytes/s)
system.mem_ctrl.bw_write::writebacks       1913300029                       # Write bandwidth from this memory (bytes/s)
system.mem_ctrl.bw_write::total            1913300029                       # Write bandwidth from this memory (bytes/s)
system.mem_ctrl.bw_total::writebacks       1913300029                       # Total bandwidth to/from this memory (bytes/s)
system.mem_ctrl.bw_total::cpu.inst         1206359613                       # Total bandwidth to/from this memory (bytes/s)
system.mem_ctrl.bw_total::cpu.data          765320012                       # Total bandwidth to/from this memory (bytes/s)
system.mem_ctrl.bw_total::total            3884979654                       # Total bandwidth to/from this memory (bytes/s)
system.mem_ctrl.readReqs                         4323                       # Number of read requests accepted
system.mem_ctrl.writeReqs                        4195                       # Number of write requests accepted
system.mem_ctrl.readBursts                       4323                       # Number of DRAM read bursts, including those serviced by the write queue
system.mem_ctrl.writeBursts                      4195                       # Number of DRAM write bursts, including those merged in the write queue
system.mem_ctrl.bytesReadDRAM                   41216                       # Total number of bytes read from DRAM
system.mem_ctrl.bytesReadWrQ                   235456                       # Total number of bytes read from write queue
system.mem_ctrl.bytesWritten                    32640                       # Total number of bytes written to DRAM
system.mem_ctrl.bytesReadSys                   276672                       # Total read bytes from the system interface side
system.mem_ctrl.bytesWrittenSys                268480                       # Total written bytes from the system interface side
system.mem_ctrl.servicedByWrQ                    3679                       # Number of DRAM read bursts serviced by the write queue
system.mem_ctrl.mergedWrBursts                   3660                       # Number of DRAM write bursts merged with an existing one
system.mem_ctrl.neitherReadNorWriteReqs             0                       # Number of requests that are neither read nor write
system.mem_ctrl.perBankRdBursts::0                 82                       # Per bank write bursts
system.mem_ctrl.perBankRdBursts::1                 24                       # Per bank write bursts
system.mem_ctrl.perBankRdBursts::2                125                       # Per bank write bursts
system.mem_ctrl.perBankRdBursts::3                 95                       # Per bank write bursts
system.mem_ctrl.perBankRdBursts::4                 73                       # Per bank write bursts
system.mem_ctrl.perBankRdBursts::5                 26                       # Per bank write bursts
system.mem_ctrl.perBankRdBursts::6                 11                       # Per bank write bursts
system.mem_ctrl.perBankRdBursts::7                  0                       # Per bank write bursts
system.mem_ctrl.perBankRdBursts::8                  3                       # Per bank write bursts
system.mem_ctrl.perBankRdBursts::9                 45                       # Per bank write bursts
system.mem_ctrl.perBankRdBursts::10                11                       # Per bank write bursts
system.mem_ctrl.perBankRdBursts::11                11                       # Per bank write bursts
system.mem_ctrl.perBankRdBursts::12                 4                       # Per bank write bursts
system.mem_ctrl.perBankRdBursts::13                37                       # Per bank write bursts
system.mem_ctrl.perBankRdBursts::14                51                       # Per bank write bursts
system.mem_ctrl.perBankRdBursts::15                46                       # Per bank write bursts
system.mem_ctrl.perBankWrBursts::0                 65                       # Per bank write bursts
system.mem_ctrl.perBankWrBursts::1                 24                       # Per bank write bursts
system.mem_ctrl.perBankWrBursts::2                 94                       # Per bank write bursts
system.mem_ctrl.perBankWrBursts::3                 74                       # Per bank write bursts
system.mem_ctrl.perBankWrBursts::4                 47                       # Per bank write bursts
system.mem_ctrl.perBankWrBursts::5                  9                       # Per bank write bursts
system.mem_ctrl.perBankWrBursts::6                 11                       # Per bank write bursts
system.mem_ctrl.perBankWrBursts::7                  0                       # Per bank write bursts
system.mem_ctrl.perBankWrBursts::8                  3                       # Per bank write bursts
system.mem_ctrl.perBankWrBursts::9                 37                       # Per bank write bursts
system.mem_ctrl.perBankWrBursts::10                11                       # Per bank write bursts
system.mem_ctrl.perBankWrBursts::11                11                       # Per bank write bursts
system.mem_ctrl.perBankWrBursts::12                 3                       # Per bank write bursts
system.mem_ctrl.perBankWrBursts::13                36                       # Per bank write bursts
system.mem_ctrl.perBankWrBursts::14                46                       # Per bank write bursts
system.mem_ctrl.perBankWrBursts::15                39                       # Per bank write bursts
system.mem_ctrl.numRdRetry                          0                       # Number of times read queue was full causing retry
system.mem_ctrl.numWrRetry                          0                       # Number of times write queue was full causing retry
system.mem_ctrl.totGap                      140315000                       # Total gap between requests
system.mem_ctrl.readPktSize::0                      0                       # Read request sizes (log2)
system.mem_ctrl.readPktSize::1                      0                       # Read request sizes (log2)
system.mem_ctrl.readPktSize::2                      0                       # Read request sizes (log2)
system.mem_ctrl.readPktSize::3                      0                       # Read request sizes (log2)
system.mem_ctrl.readPktSize::4                      0                       # Read request sizes (log2)
system.mem_ctrl.readPktSize::5                      0                       # Read request sizes (log2)
system.mem_ctrl.readPktSize::6                   4323                       # Read request sizes (log2)
system.mem_ctrl.writePktSize::0                     0                       # Write request sizes (log2)
system.mem_ctrl.writePktSize::1                     0                       # Write request sizes (log2)
system.mem_ctrl.writePktSize::2                     0                       # Write request sizes (log2)
system.mem_ctrl.writePktSize::3                     0                       # Write request sizes (log2)
system.mem_ctrl.writePktSize::4                     0                       # Write request sizes (log2)
system.mem_ctrl.writePktSize::5                     0                       # Write request sizes (log2)
system.mem_ctrl.writePktSize::6                  4195                       # Write request sizes (log2)
system.mem_ctrl.rdQLenPdf::0                      644                       # What read queue length does an incoming req see
system.mem_ctrl.rdQLenPdf::1                        0                       # What read queue length does an incoming req see
system.mem_ctrl.rdQLenPdf::2                        0                       # What read queue length does an incoming req see
system.mem_ctrl.rdQLenPdf::3                        0                       # What read queue length does an incoming req see
system.mem_ctrl.rdQLenPdf::4                        0                       # What read queue length does an incoming req see
system.mem_ctrl.rdQLenPdf::5                        0                       # What read queue length does an incoming req see
system.mem_ctrl.rdQLenPdf::6                        0                       # What read queue length does an incoming req see
system.mem_ctrl.rdQLenPdf::7                        0                       # What read queue length does an incoming req see
system.mem_ctrl.rdQLenPdf::8                        0                       # What read queue length does an incoming req see
system.mem_ctrl.rdQLenPdf::9                        0                       # What read queue length does an incoming req see
system.mem_ctrl.rdQLenPdf::10                       0                       # What read queue length does an incoming req see
system.mem_ctrl.rdQLenPdf::11                       0                       # What read queue length does an incoming req see
system.mem_ctrl.rdQLenPdf::12                       0                       # What read queue length does an incoming req see
system.mem_ctrl.rdQLenPdf::13                       0                       # What read queue length does an incoming req see
system.mem_ctrl.rdQLenPdf::14                       0                       # What read queue length does an incoming req see
system.mem_ctrl.rdQLenPdf::15                       0                       # What read queue length does an incoming req see
system.mem_ctrl.rdQLenPdf::16                       0                       # What read queue length does an incoming req see
system.mem_ctrl.rdQLenPdf::17                       0                       # What read queue length does an incoming req see
system.mem_ctrl.rdQLenPdf::18                       0                       # What read queue length does an incoming req see
system.mem_ctrl.rdQLenPdf::19                       0                       # What read queue length does an incoming req see
system.mem_ctrl.rdQLenPdf::20                       0                       # What read queue length does an incoming req see
system.mem_ctrl.rdQLenPdf::21                       0                       # What read queue length does an incoming req see
system.mem_ctrl.rdQLenPdf::22                       0                       # What read queue length does an incoming req see
system.mem_ctrl.rdQLenPdf::23                       0                       # What read queue length does an incoming req see
system.mem_ctrl.rdQLenPdf::24                       0                       # What read queue length does an incoming req see
system.mem_ctrl.rdQLenPdf::25                       0                       # What read queue length does an incoming req see
system.mem_ctrl.rdQLenPdf::26                       0                       # What read queue length does an incoming req see
system.mem_ctrl.rdQLenPdf::27                       0                       # What read queue length does an incoming req see
system.mem_ctrl.rdQLenPdf::28                       0                       # What read queue length does an incoming req see
system.mem_ctrl.rdQLenPdf::29                       0                       # What read queue length does an incoming req see
system.mem_ctrl.rdQLenPdf::30                       0                       # What read queue length does an incoming req see
system.mem_ctrl.rdQLenPdf::31                       0                       # What read queue length does an incoming req see
system.mem_ctrl.wrQLenPdf::0                        1                       # What write queue length does an incoming req see
system.mem_ctrl.wrQLenPdf::1                        1                       # What write queue length does an incoming req see
system.mem_ctrl.wrQLenPdf::2                        1                       # What write queue length does an incoming req see
system.mem_ctrl.wrQLenPdf::3                        1                       # What write queue length does an incoming req see
system.mem_ctrl.wrQLenPdf::4                        1                       # What write queue length does an incoming req see
system.mem_ctrl.wrQLenPdf::5                        1                       # What write queue length does an incoming req see
system.mem_ctrl.wrQLenPdf::6                        1                       # What write queue length does an incoming req see
system.mem_ctrl.wrQLenPdf::7                        1                       # What write queue length does an incoming req see
system.mem_ctrl.wrQLenPdf::8                        1                       # What write queue length does an incoming req see
system.mem_ctrl.wrQLenPdf::9                        1                       # What write queue length does an incoming req see
system.mem_ctrl.wrQLenPdf::10                       1                       # What write queue length does an incoming req see
system.mem_ctrl.wrQLenPdf::11                       1                       # What write queue length does an incoming req see
system.mem_ctrl.wrQLenPdf::12                       1                       # What write queue length does an incoming req see
system.mem_ctrl.wrQLenPdf::13                       1                       # What write queue length does an incoming req see
system.mem_ctrl.wrQLenPdf::14                       1                       # What write queue length does an incoming req see
system.mem_ctrl.wrQLenPdf::15                       7                       # What write queue length does an incoming req see
system.mem_ctrl.wrQLenPdf::16                       7                       # What write queue length does an incoming req see
system.mem_ctrl.wrQLenPdf::17                      23                       # What write queue length does an incoming req see
system.mem_ctrl.wrQLenPdf::18                      31                       # What write queue length does an incoming req see
system.mem_ctrl.wrQLenPdf::19                      33                       # What write queue length does an incoming req see
system.mem_ctrl.wrQLenPdf::20                      33                       # What write queue length does an incoming req see
system.mem_ctrl.wrQLenPdf::21                      32                       # What write queue length does an incoming req see
system.mem_ctrl.wrQLenPdf::22                      32                       # What write queue length does an incoming req see
system.mem_ctrl.wrQLenPdf::23                      39                       # What write queue length does an incoming req see
system.mem_ctrl.wrQLenPdf::24                      35                       # What write queue length does an incoming req see
system.mem_ctrl.wrQLenPdf::25                      31                       # What write queue length does an incoming req see
system.mem_ctrl.wrQLenPdf::26                      31                       # What write queue length does an incoming req see
system.mem_ctrl.wrQLenPdf::27                      31                       # What write queue length does an incoming req see
system.mem_ctrl.wrQLenPdf::28                      31                       # What write queue length does an incoming req see
system.mem_ctrl.wrQLenPdf::29                      31                       # What write queue length does an incoming req see
system.mem_ctrl.wrQLenPdf::30                      31                       # What write queue length does an incoming req see
system.mem_ctrl.wrQLenPdf::31                      31                       # What write queue length does an incoming req see
system.mem_ctrl.wrQLenPdf::32                      31                       # What write queue length does an incoming req see
system.mem_ctrl.wrQLenPdf::33                       0                       # What write queue length does an incoming req see
system.mem_ctrl.wrQLenPdf::34                       0                       # What write queue length does an incoming req see
system.mem_ctrl.wrQLenPdf::35                       0                       # What write queue length does an incoming req see
system.mem_ctrl.wrQLenPdf::36                       0                       # What write queue length does an incoming req see
system.mem_ctrl.wrQLenPdf::37                       0                       # What write queue length does an incoming req see
system.mem_ctrl.wrQLenPdf::38                       0                       # What write queue length does an incoming req see
system.mem_ctrl.wrQLenPdf::39                       0                       # What write queue length does an incoming req see
system.mem_ctrl.wrQLenPdf::40                       0                       # What write queue length does an incoming req see
system.mem_ctrl.wrQLenPdf::41                       0                       # What write queue length does an incoming req see
system.mem_ctrl.wrQLenPdf::42                       0                       # What write queue length does an incoming req see
system.mem_ctrl.wrQLenPdf::43                       0                       # What write queue length does an incoming req see
system.mem_ctrl.wrQLenPdf::44                       0                       # What write queue length does an incoming req see
system.mem_ctrl.wrQLenPdf::45                       0                       # What write queue length does an incoming req see
system.mem_ctrl.wrQLenPdf::46                       0                       # What write queue length does an incoming req see
system.mem_ctrl.wrQLenPdf::47                       0                       # What write queue length does an incoming req see
system.mem_ctrl.wrQLenPdf::48                       0                       # What write queue length does an incoming req see
system.mem_ctrl.wrQLenPdf::49                       0                       # What write queue length does an incoming req see
system.mem_ctrl.wrQLenPdf::50                       0                       # What write queue length does an incoming req see
system.mem_ctrl.wrQLenPdf::51                       0                       # What write queue length does an incoming req see
system.mem_ctrl.wrQLenPdf::52                       0                       # What write queue length does an incoming req see
system.mem_ctrl.wrQLenPdf::53                       0                       # What write queue length does an incoming req see
system.mem_ctrl.wrQLenPdf::54                       0                       # What write queue length does an incoming req see
system.mem_ctrl.wrQLenPdf::55                       0                       # What write queue length does an incoming req see
system.mem_ctrl.wrQLenPdf::56                       0                       # What write queue length does an incoming req see
system.mem_ctrl.wrQLenPdf::57                       0                       # What write queue length does an incoming req see
system.mem_ctrl.wrQLenPdf::58                       0                       # What write queue length does an incoming req see
system.mem_ctrl.wrQLenPdf::59                       0                       # What write queue length does an incoming req see
system.mem_ctrl.wrQLenPdf::60                       0                       # What write queue length does an incoming req see
system.mem_ctrl.wrQLenPdf::61                       0                       # What write queue length does an incoming req see
system.mem_ctrl.wrQLenPdf::62                       0                       # What write queue length does an incoming req see
system.mem_ctrl.wrQLenPdf::63                       0                       # What write queue length does an incoming req see
system.mem_ctrl.bytesPerActivate::samples          207                       # Bytes accessed per row activation
system.mem_ctrl.bytesPerActivate::mean     354.628019                       # Bytes accessed per row activation
system.mem_ctrl.bytesPerActivate::gmean    220.188437                       # Bytes accessed per row activation
system.mem_ctrl.bytesPerActivate::stdev    331.697681                       # Bytes accessed per row activation
system.mem_ctrl.bytesPerActivate::0-127            60     28.99%     28.99% # Bytes accessed per row activation
system.mem_ctrl.bytesPerActivate::128-255           46     22.22%     51.21% # Bytes accessed per row activation
system.mem_ctrl.bytesPerActivate::256-383           21     10.14%     61.35% # Bytes accessed per row activation
system.mem_ctrl.bytesPerActivate::384-511           23     11.11%     72.46% # Bytes accessed per row activation
system.mem_ctrl.bytesPerActivate::512-639           11      5.31%     77.78% # Bytes accessed per row activation
system.mem_ctrl.bytesPerActivate::640-767            9      4.35%     82.13% # Bytes accessed per row activation
system.mem_ctrl.bytesPerActivate::768-895            5      2.42%     84.54% # Bytes accessed per row activation
system.mem_ctrl.bytesPerActivate::896-1023            9      4.35%     88.89% # Bytes accessed per row activation
system.mem_ctrl.bytesPerActivate::1024-1151           23     11.11%    100.00% # Bytes accessed per row activation
system.mem_ctrl.bytesPerActivate::total           207                       # Bytes accessed per row activation
system.mem_ctrl.rdPerTurnAround::samples           31                       # Reads before turning the bus around for writes
system.mem_ctrl.rdPerTurnAround::mean       20.451613                       # Reads before turning the bus around for writes
system.mem_ctrl.rdPerTurnAround::gmean      16.990131                       # Reads before turning the bus around for writes
system.mem_ctrl.rdPerTurnAround::stdev      25.920184                       # Reads before turning the bus around for writes
system.mem_ctrl.rdPerTurnAround::8-15              15     48.39%     48.39% # Reads before turning the bus around for writes
system.mem_ctrl.rdPerTurnAround::16-23             15     48.39%     96.77% # Reads before turning the bus around for writes
system.mem_ctrl.rdPerTurnAround::160-167            1      3.23%    100.00% # Reads before turning the bus around for writes
system.mem_ctrl.rdPerTurnAround::total             31                       # Reads before turning the bus around for writes
system.mem_ctrl.wrPerTurnAround::samples           31                       # Writes before turning the bus around for reads
system.mem_ctrl.wrPerTurnAround::mean       16.451613                       # Writes before turning the bus around for reads
system.mem_ctrl.wrPerTurnAround::gmean      16.429610                       # Writes before turning the bus around for reads
system.mem_ctrl.wrPerTurnAround::stdev       0.888396                       # Writes before turning the bus around for reads
system.mem_ctrl.wrPerTurnAround::16                24     77.42%     77.42% # Writes before turning the bus around for reads
system.mem_ctrl.wrPerTurnAround::17                 1      3.23%     80.65% # Writes before turning the bus around for reads
system.mem_ctrl.wrPerTurnAround::18                 5     16.13%     96.77% # Writes before turning the bus around for reads
system.mem_ctrl.wrPerTurnAround::19                 1      3.23%    100.00% # Writes before turning the bus around for reads
system.mem_ctrl.wrPerTurnAround::total             31                       # Writes before turning the bus around for reads
system.mem_ctrl.totQLat                      11147250                       # Total ticks spent queuing
system.mem_ctrl.totMemAccLat                 23222250                       # Total ticks spent from burst creation until serviced by the DRAM
system.mem_ctrl.totBusLat                     3220000                       # Total ticks spent in databus transfers
system.mem_ctrl.avgQLat                      17309.39                       # Average queueing delay per DRAM burst
system.mem_ctrl.avgBusLat                     5000.00                       # Average bus latency per DRAM burst
system.mem_ctrl.avgMemAccLat                 36059.39                       # Average memory access latency per DRAM burst
system.mem_ctrl.avgRdBW                        293.72                       # Average DRAM read bandwidth in MiByte/s
system.mem_ctrl.avgWrBW                        232.61                       # Average achieved write bandwidth in MiByte/s
system.mem_ctrl.avgRdBWSys                    1971.68                       # Average system read bandwidth in MiByte/s
system.mem_ctrl.avgWrBWSys                    1913.30                       # Average system write bandwidth in MiByte/s
system.mem_ctrl.peakBW                       12800.00                       # Theoretical peak bandwidth in MiByte/s
system.mem_ctrl.busUtil                          4.11                       # Data bus utilization in percentage
system.mem_ctrl.busUtilRead                      2.29                       # Data bus utilization in percentage for reads
system.mem_ctrl.busUtilWrite                     1.82                       # Data bus utilization in percentage for writes
system.mem_ctrl.avgRdQLen                        1.00                       # Average read queue length when enqueuing
system.mem_ctrl.avgWrQLen                       25.43                       # Average write queue length when enqueuing
system.mem_ctrl.readRowHits                       466                       # Number of row buffer hits during reads
system.mem_ctrl.writeRowHits                      477                       # Number of row buffer hits during writes
system.mem_ctrl.readRowHitRate                  72.36                       # Row buffer hit rate for reads
system.mem_ctrl.writeRowHitRate                 89.16                       # Row buffer hit rate for writes
system.mem_ctrl.avgGap                       16472.76                       # Average gap between requests
system.mem_ctrl.pageHitRate                     79.98                       # Row buffer hit rate, read and write combined
system.mem_ctrl_0.actEnergy                   1128120                       # Energy for activate commands per rank (pJ)
system.mem_ctrl_0.preEnergy                    592020                       # Energy for precharge commands per rank (pJ)
system.mem_ctrl_0.readEnergy                  3113040                       # Energy for read commands per rank (pJ)
system.mem_ctrl_0.writeEnergy                 1691280                       # Energy for write commands per rank (pJ)
system.mem_ctrl_0.refreshEnergy          9219600.000000                       # Energy for refresh commands per rank (pJ)
system.mem_ctrl_0.actBackEnergy              11784750                       # Energy for active background per rank (pJ)
system.mem_ctrl_0.preBackEnergy                287520                       # Energy for precharge background per rank (pJ)
system.mem_ctrl_0.actPowerDownEnergy         33249240                       # Energy for active power-down per rank (pJ)
system.mem_ctrl_0.prePowerDownEnergy          4022880                       # Energy for precharge power-down per rank (pJ)
system.mem_ctrl_0.selfRefreshEnergy           7833840                       # Energy for self refresh per rank (pJ)
system.mem_ctrl_0.totalEnergy                72922290                       # Total energy per rank (pJ)
system.mem_ctrl_0.averagePower             519.671759                       # Core power per rank (mW)
system.mem_ctrl_0.totalIdleTime             113682250                       # Total Idle time Per DRAM Rank
system.mem_ctrl_0.memoryStateTime::IDLE        343000                       # Time in different power states
system.mem_ctrl_0.memoryStateTime::REF        3906000                       # Time in different power states
system.mem_ctrl_0.memoryStateTime::SREF      30340000                       # Time in different power states
system.mem_ctrl_0.memoryStateTime::PRE_PDN     10474000                       # Time in different power states
system.mem_ctrl_0.memoryStateTime::ACT       22354250                       # Time in different power states
system.mem_ctrl_0.memoryStateTime::ACT_PDN     72905750                       # Time in different power states
system.mem_ctrl_1.actEnergy                    378420                       # Energy for activate commands per rank (pJ)
system.mem_ctrl_1.preEnergy                    193545                       # Energy for precharge commands per rank (pJ)
system.mem_ctrl_1.readEnergy                  1485120                       # Energy for read commands per rank (pJ)
system.mem_ctrl_1.writeEnergy                  970920                       # Energy for write commands per rank (pJ)
system.mem_ctrl_1.refreshEnergy          9219600.000000                       # Energy for refresh commands per rank (pJ)
system.mem_ctrl_1.actBackEnergy               7032090                       # Energy for active background per rank (pJ)
system.mem_ctrl_1.preBackEnergy                526560                       # Energy for precharge background per rank (pJ)
system.mem_ctrl_1.actPowerDownEnergy         28016640                       # Energy for active power-down per rank (pJ)
system.mem_ctrl_1.prePowerDownEnergy          9645600                       # Energy for precharge power-down per rank (pJ)
system.mem_ctrl_1.selfRefreshEnergy           9977880                       # Energy for self refresh per rank (pJ)
system.mem_ctrl_1.totalEnergy                67446375                       # Total energy per rank (pJ)
system.mem_ctrl_1.averagePower             480.648322                       # Core power per rank (mW)
system.mem_ctrl_1.totalIdleTime             123242250                       # Total Idle time Per DRAM Rank
system.mem_ctrl_1.memoryStateTime::IDLE       1002000                       # Time in different power states
system.mem_ctrl_1.memoryStateTime::REF        3912000                       # Time in different power states
system.mem_ctrl_1.memoryStateTime::SREF      36972250                       # Time in different power states
system.mem_ctrl_1.memoryStateTime::PRE_PDN     25118750                       # Time in different power states
system.mem_ctrl_1.memoryStateTime::ACT       11886500                       # Time in different power states
system.mem_ctrl_1.memoryStateTime::ACT_PDN     61431500                       # Time in different power states
system.pwrStateResidencyTicks::UNDEFINED    140323000                       # Cumulative time (in ticks) in various power states
system.cache.pwrStateResidencyTicks::UNDEFINED    140323000                       # Cumulative time (in ticks) in various power states
system.cache.hits                                6015                       # Number of hits
system.cache.misses                              4323                       # Number of misses
system.cache.missLatency::samples                4323                       # Ticks for misses to the cache
system.cache.missLatency::mean           30068.239648                       # Ticks for misses to the cache
system.cache.missLatency::gmean          27185.726378                       # Ticks for misses to the cache
system.cache.missLatency::stdev          21338.737303                       # Ticks for misses to the cache
system.cache.missLatency::0-65535                4141     95.79%     95.79% # Ticks for misses to the cache
system.cache.missLatency::65536-131071            156      3.61%     99.40% # Ticks for misses to the cache
system.cache.missLatency::131072-196607            17      0.39%     99.79% # Ticks for misses to the cache
system.cache.missLatency::196608-262143             3      0.07%     99.86% # Ticks for misses to the cache
system.cache.missLatency::262144-327679             4      0.09%     99.95% # Ticks for misses to the cache
system.cache.missLatency::327680-393215             1      0.02%     99.98% # Ticks for misses to the cache
system.cache.missLatency::393216-458751             0      0.00%     99.98% # Ticks for misses to the cache
system.cache.missLatency::458752-524287             0      0.00%     99.98% # Ticks for misses to the cache
system.cache.missLatency::524288-589823             0      0.00%     99.98% # Ticks for misses to the cache
system.cache.missLatency::589824-655359             1      0.02%    100.00% # Ticks for misses to the cache
system.cache.missLatency::655360-720895             0      0.00%    100.00% # Ticks for misses to the cache
system.cache.missLatency::720896-786431             0      0.00%    100.00% # Ticks for misses to the cache
system.cache.missLatency::786432-851967             0      0.00%    100.00% # Ticks for misses to the cache
system.cache.missLatency::851968-917503             0      0.00%    100.00% # Ticks for misses to the cache
system.cache.missLatency::917504-983039             0      0.00%    100.00% # Ticks for misses to the cache
system.cache.missLatency::983040-1.04858e+06            0      0.00%    100.00% # Ticks for misses to the cache
system.cache.missLatency::total                  4323                       # Ticks for misses to the cache
system.cache.hitRatio                        0.581834                       # The ratio of hits to the total accesses to the cache
system.cpu.dtb.fetch_hits                           0                       # ITB hits
system.cpu.dtb.fetch_misses                         0                       # ITB misses
system.cpu.dtb.fetch_acv                            0                       # ITB acv
system.cpu.dtb.fetch_accesses                       0                       # ITB accesses
system.cpu.dtb.read_hits                         1526                       # DTB read hits
system.cpu.dtb.read_misses                         10                       # DTB read misses
system.cpu.dtb.read_acv                             0                       # DTB read access violations
system.cpu.dtb.read_accesses                     1536                       # DTB read accesses
system.cpu.dtb.write_hits                        1036                       # DTB write hits
system.cpu.dtb.write_misses                         2                       # DTB write misses
system.cpu.dtb.write_acv                            0                       # DTB write access violations
system.cpu.dtb.write_accesses                    1038                       # DTB write accesses
system.cpu.dtb.data_hits                         2562                       # DTB hits
system.cpu.dtb.data_misses                         12                       # DTB misses
system.cpu.dtb.data_acv                             0                       # DTB access violations
system.cpu.dtb.data_accesses                     2574                       # DTB accesses
system.cpu.itb.fetch_hits                        7777                       # ITB hits
system.cpu.itb.fetch_misses                        18                       # ITB misses
system.cpu.itb.fetch_acv                            0                       # ITB acv
system.cpu.itb.fetch_accesses                    7795                       # ITB accesses
system.cpu.itb.read_hits                            0                       # DTB read hits
system.cpu.itb.read_misses                          0                       # DTB read misses
system.cpu.itb.read_acv                             0                       # DTB read access violations
system.cpu.itb.read_accesses                        0                       # DTB read accesses
system.cpu.itb.write_hits                           0                       # DTB write hits
system.cpu.itb.write_misses                         0                       # DTB write misses
system.cpu.itb.write_acv                            0                       # DTB write access violations
system.cpu.itb.write_accesses                       0                       # DTB write accesses
system.cpu.itb.data_hits                            0                       # DTB hits
system.cpu.itb.data_misses                          0                       # DTB misses
system.cpu.itb.data_acv                             0                       # DTB access violations
system.cpu.itb.data_accesses                        0                       # DTB accesses
system.cpu.workload.numSyscalls                    10                       # Number of system calls
system.cpu.pwrStateResidencyTicks::ON       140323000                       # Cumulative time (in ticks) in various power states
system.cpu.numCycles                           140323                       # number of cpu cycles simulated
system.cpu.numWorkItemsStarted                      0                       # number of work items this cpu started
system.cpu.numWorkItemsCompleted                    0                       # number of work items this cpu completed
system.cpu.committedInsts                        7764                       # Number of instructions committed
system.cpu.committedOps                          7764                       # Number of ops (including micro ops) committed
system.cpu.num_int_alu_accesses                  7679                       # Number of integer alu accesses
system.cpu.num_fp_alu_accesses                     17                       # Number of float alu accesses
system.cpu.num_vec_alu_accesses                     0                       # Number of vector alu accesses
system.cpu.num_func_calls                         259                       # number of times a function call or return occured
system.cpu.num_conditional_control_insts          906                       # number of instructions that are conditional controls
system.cpu.num_int_insts                         7679                       # number of integer instructions
system.cpu.num_fp_insts                            17                       # number of float instructions
system.cpu.num_vec_insts                            0                       # number of vector instructions
system.cpu.num_int_register_reads               10227                       # number of times the integer registers were read
system.cpu.num_int_register_writes               5586                       # number of times the integer registers were written
system.cpu.num_fp_register_reads                   14                       # number of times the floating registers were read
system.cpu.num_fp_register_writes                   5                       # number of times the floating registers were written
system.cpu.num_vec_register_reads                   0                       # number of times the vector registers were read
system.cpu.num_vec_register_writes                  0                       # number of times the vector registers were written
system.cpu.num_mem_refs                          2574                       # number of memory refs
system.cpu.num_load_insts                        1536                       # Number of load instructions
system.cpu.num_store_insts                       1038                       # Number of store instructions
system.cpu.num_idle_cycles                          0                       # Number of idle cycles
system.cpu.num_busy_cycles                     140323                       # Number of busy cycles
system.cpu.not_idle_fraction                        1                       # Percentage of non-idle cycles
system.cpu.idle_fraction                            0                       # Percentage of idle cycles
system.cpu.Branches                              1240                       # Number of branches fetched
system.cpu.op_class::No_OpClass                    22      0.28%      0.28% # Class of executed instruction
system.cpu.op_class::IntAlu                      5175     66.55%     66.83% # Class of executed instruction
system.cpu.op_class::IntMult                        1      0.01%     66.85% # Class of executed instruction
system.cpu.op_class::IntDiv                         0      0.00%     66.85% # Class of executed instruction
system.cpu.op_class::FloatAdd                       3      0.04%     66.89% # Class of executed instruction
system.cpu.op_class::FloatCmp                       1      0.01%     66.90% # Class of executed instruction
system.cpu.op_class::FloatCvt                       0      0.00%     66.90% # Class of executed instruction
system.cpu.op_class::FloatMult                      0      0.00%     66.90% # Class of executed instruction
system.cpu.op_class::FloatMultAcc                   0      0.00%     66.90% # Class of executed instruction
system.cpu.op_class::FloatDiv                       0      0.00%     66.90% # Class of executed instruction
system.cpu.op_class::FloatMisc                      0      0.00%     66.90% # Class of executed instruction
system.cpu.op_class::FloatSqrt                      0      0.00%     66.90% # Class of executed instruction
system.cpu.op_class::SimdAdd                        0      0.00%     66.90% # Class of executed instruction
system.cpu.op_class::SimdAddAcc                     0      0.00%     66.90% # Class of executed instruction
system.cpu.op_class::SimdAlu                        0      0.00%     66.90% # Class of executed instruction
system.cpu.op_class::SimdCmp                        0      0.00%     66.90% # Class of executed instruction
system.cpu.op_class::SimdCvt                        0      0.00%     66.90% # Class of executed instruction
system.cpu.op_class::SimdMisc                       0      0.00%     66.90% # Class of executed instruction
system.cpu.op_class::SimdMult                       0      0.00%     66.90% # Class of executed instruction
system.cpu.op_class::SimdMultAcc                    0      0.00%     66.90% # Class of executed instruction
system.cpu.op_class::SimdShift                      0      0.00%     66.90% # Class of executed instruction
system.cpu.op_class::SimdShiftAcc                   0      0.00%     66.90% # Class of executed instruction
system.cpu.op_class::SimdSqrt                       0      0.00%     66.90% # Class of executed instruction
system.cpu.op_class::SimdFloatAdd                   0      0.00%     66.90% # Class of executed instruction
system.cpu.op_class::SimdFloatAlu                   0      0.00%     66.90% # Class of executed instruction
system.cpu.op_class::SimdFloatCmp                   0      0.00%     66.90% # Class of executed instruction
system.cpu.op_class::SimdFloatCvt                   0      0.00%     66.90% # Class of executed instruction
system.cpu.op_class::SimdFloatDiv                   0      0.00%     66.90% # Class of executed instruction
system.cpu.op_class::SimdFloatMisc                  0      0.00%     66.90% # Class of executed instruction
system.cpu.op_class::SimdFloatMult                  0      0.00%     66.90% # Class of executed instruction
system.cpu.op_class::SimdFloatMultAcc               0      0.00%     66.90% # Class of executed instruction
system.cpu.op_class::SimdFloatSqrt                  0      0.00%     66.90% # Class of executed instruction
system.cpu.op_class::MemRead                     1533     19.71%     86.61% # Class of executed instruction
system.cpu.op_class::MemWrite                    1028     13.22%     99.83% # Class of executed instruction
system.cpu.op_class::FloatMemRead                   3      0.04%     99.87% # Class of executed instruction
system.cpu.op_class::FloatMemWrite                 10      0.13%    100.00% # Class of executed instruction
system.cpu.op_class::IprAccess                      0      0.00%    100.00% # Class of executed instruction
system.cpu.op_class::InstPrefetch                   0      0.00%    100.00% # Class of executed instruction
system.cpu.op_class::total                       7776                       # Class of executed instruction
system.membus.snoop_filter.tot_requests             0                       # Total number of requests made to the snoop filter.
system.membus.snoop_filter.hit_single_requests            0                       # Number of requests hitting in the snoop filter with a single holder of the requested data.
system.membus.snoop_filter.hit_multi_requests            0                       # Number of requests hitting in the snoop filter with multiple (>1) holders of the requested data.
system.membus.snoop_filter.tot_snoops               0                       # Total number of snoops made to the snoop filter.
system.membus.snoop_filter.hit_single_snoops            0                       # Number of snoops hitting in the snoop filter with a single holder of the requested data.
system.membus.snoop_filter.hit_multi_snoops            0                       # Number of snoops hitting in the snoop filter with multiple (>1) holders of the requested data.
system.membus.pwrStateResidencyTicks::UNDEFINED    140323000                       # Cumulative time (in ticks) in various power states
system.membus.trans_dist::ReadReq                4323                       # Transaction distribution
system.membus.trans_dist::ReadResp               4323                       # Transaction distribution
system.membus.trans_dist::WritebackDirty         4195                       # Transaction distribution
system.membus.pkt_count_system.cache.mem_side::system.mem_ctrl.port        12841                       # Packet count per connected master and slave (bytes)
system.membus.pkt_count::total                  12841                       # Packet count per connected master and slave (bytes)
system.membus.pkt_size_system.cache.mem_side::system.mem_ctrl.port       545152                       # Cumulative packet size per connected master and slave (bytes)
system.membus.pkt_size::total                  545152                       # Cumulative packet size per connected master and slave (bytes)
system.membus.snoops                                0                       # Total snoops (count)
system.membus.snoopTraffic                          0                       # Total snoop traffic (bytes)
system.membus.snoop_fanout::samples              4323                       # Request fanout histogram
system.membus.snoop_fanout::mean                    0                       # Request fanout histogram
system.membus.snoop_fanout::stdev                   0                       # Request fanout histogram
system.membus.snoop_fanout::underflows              0      0.00%      0.00% # Request fanout histogram
system.membus.snoop_fanout::0                    4323    100.00%    100.00% # Request fanout histogram
system.membus.snoop_fanout::overflows               0      0.00%    100.00% # Request fanout histogram
system.membus.snoop_fanout::min_value               0                       # Request fanout histogram
system.membus.snoop_fanout::max_value               0                       # Request fanout histogram
system.membus.snoop_fanout::total                4323                       # Request fanout histogram
system.membus.reqLayer0.occupancy            25298000                       # Layer occupancy (ticks)
system.membus.reqLayer0.utilization              18.0                       # Layer utilization (%)
system.membus.respLayer0.occupancy           21826750                       # Layer occupancy (ticks)
system.membus.respLayer0.utilization             15.6                       # Layer utilization (%)

---------- End Simulation Statistics   ----------
