
---------- Begin Simulation Statistics ----------
sim_seconds                                  0.000052                       # Number of seconds simulated
sim_ticks                                    51607000                       # Number of ticks simulated
final_tick                                   51607000                       # Number of ticks from beginning of simulation (restored from checkpoints and never reset)
sim_freq                                 1000000000000                       # Frequency of simulated ticks
host_inst_rate                                 471660                       # Simulator instruction rate (inst/s)
host_op_rate                                   471374                       # Simulator op (including micro ops) rate (op/s)
host_tick_rate                             3131492718                       # Simulator tick rate (ticks/s)
host_mem_usage                                6687900                       # Number of bytes of host memory used
host_seconds                                     0.02                       # Real time elapsed on the host
sim_insts                                        7764                       # Number of instructions simulated
sim_ops                                          7764                       # Number of ops (including micro ops) simulated
system.clk_domain.voltage_domain.voltage            1                       # Voltage in Volts
system.clk_domain.clock                          1000                       # Clock period in ticks
system.mem_ctrl.pwrStateResidencyTicks::UNDEFINED     51607000                       # Cumulative time (in ticks) in various power states
system.mem_ctrl.bytes_read::cpu.inst            22976                       # Number of bytes read from this memory
system.mem_ctrl.bytes_read::cpu.data            18496                       # Number of bytes read from this memory
system.mem_ctrl.bytes_read::total               41472                       # Number of bytes read from this memory
system.mem_ctrl.bytes_inst_read::cpu.inst        22976                       # Number of instructions bytes read from this memory
system.mem_ctrl.bytes_inst_read::total          22976                       # Number of instructions bytes read from this memory
system.mem_ctrl.bytes_written::writebacks        33280                       # Number of bytes written to this memory
system.mem_ctrl.bytes_written::total            33280                       # Number of bytes written to this memory
system.mem_ctrl.num_reads::cpu.inst               359                       # Number of read requests responded to by this memory
system.mem_ctrl.num_reads::cpu.data               289                       # Number of read requests responded to by this memory
system.mem_ctrl.num_reads::total                  648                       # Number of read requests responded to by this memory
system.mem_ctrl.num_writes::writebacks            520                       # Number of write requests responded to by this memory
system.mem_ctrl.num_writes::total                 520                       # Number of write requests responded to by this memory
system.mem_ctrl.bw_read::cpu.inst           445210921                       # Total read bandwidth from this memory (bytes/s)
system.mem_ctrl.bw_read::cpu.data           358400992                       # Total read bandwidth from this memory (bytes/s)
system.mem_ctrl.bw_read::total              803611913                       # Total read bandwidth from this memory (bytes/s)
system.mem_ctrl.bw_inst_read::cpu.inst      445210921                       # Instruction read bandwidth from this memory (bytes/s)
system.mem_ctrl.bw_inst_read::total         445210921                       # Instruction read bandwidth from this memory (bytes/s)
system.mem_ctrl.bw_write::writebacks        644873757                       # Write bandwidth from this memory (bytes/s)
system.mem_ctrl.bw_write::total             644873757                       # Write bandwidth from this memory (bytes/s)
system.mem_ctrl.bw_total::writebacks        644873757                       # Total bandwidth to/from this memory (bytes/s)
system.mem_ctrl.bw_total::cpu.inst          445210921                       # Total bandwidth to/from this memory (bytes/s)
system.mem_ctrl.bw_total::cpu.data          358400992                       # Total bandwidth to/from this memory (bytes/s)
system.mem_ctrl.bw_total::total            1448485671                       # Total bandwidth to/from this memory (bytes/s)
system.mem_ctrl.readReqs                          648                       # Number of read requests accepted
system.mem_ctrl.writeReqs                         520                       # Number of write requests accepted
system.mem_ctrl.readBursts                        648                       # Number of DRAM read bursts, including those serviced by the write queue
system.mem_ctrl.writeBursts                       520                       # Number of DRAM write bursts, including those merged in the write queue
system.mem_ctrl.bytesReadDRAM                   38400                       # Total number of bytes read from DRAM
system.mem_ctrl.bytesReadWrQ                     3072                       # Total number of bytes read from write queue
system.mem_ctrl.bytesWritten                    31744                       # Total number of bytes written to DRAM
system.mem_ctrl.bytesReadSys                    41472                       # Total read bytes from the system interface side
system.mem_ctrl.bytesWrittenSys                 33280                       # Total written bytes from the system interface side
system.mem_ctrl.servicedByWrQ                      48                       # Number of DRAM read bursts serviced by the write queue
system.mem_ctrl.mergedWrBursts                      3                       # Number of DRAM write bursts merged with an existing one
system.mem_ctrl.neitherReadNorWriteReqs             0                       # Number of requests that are neither read nor write
system.mem_ctrl.perBankRdBursts::0                 77                       # Per bank write bursts
system.mem_ctrl.perBankRdBursts::1                 21                       # Per bank write bursts
system.mem_ctrl.perBankRdBursts::2                127                       # Per bank write bursts
system.mem_ctrl.perBankRdBursts::3                100                       # Per bank write bursts
system.mem_ctrl.perBankRdBursts::4                 71                       # Per bank write bursts
system.mem_ctrl.perBankRdBursts::5                 33                       # Per bank write bursts
system.mem_ctrl.perBankRdBursts::6                 11                       # Per bank write bursts
system.mem_ctrl.perBankRdBursts::7                  0                       # Per bank write bursts
system.mem_ctrl.perBankRdBursts::8                  3                       # Per bank write bursts
system.mem_ctrl.perBankRdBursts::9                 41                       # Per bank write bursts
system.mem_ctrl.perBankRdBursts::10                 7                       # Per bank write bursts
system.mem_ctrl.perBankRdBursts::11                10                       # Per bank write bursts
system.mem_ctrl.perBankRdBursts::12                 4                       # Per bank write bursts
system.mem_ctrl.perBankRdBursts::13                30                       # Per bank write bursts
system.mem_ctrl.perBankRdBursts::14                43                       # Per bank write bursts
system.mem_ctrl.perBankRdBursts::15                22                       # Per bank write bursts
system.mem_ctrl.perBankWrBursts::0                 64                       # Per bank write bursts
system.mem_ctrl.perBankWrBursts::1                 21                       # Per bank write bursts
system.mem_ctrl.perBankWrBursts::2                117                       # Per bank write bursts
system.mem_ctrl.perBankWrBursts::3                 96                       # Per bank write bursts
system.mem_ctrl.perBankWrBursts::4                 57                       # Per bank write bursts
system.mem_ctrl.perBankWrBursts::5                 31                       # Per bank write bursts
system.mem_ctrl.perBankWrBursts::6                  9                       # Per bank write bursts
system.mem_ctrl.perBankWrBursts::7                  0                       # Per bank write bursts
system.mem_ctrl.perBankWrBursts::8                  1                       # Per bank write bursts
system.mem_ctrl.perBankWrBursts::9                 42                       # Per bank write bursts
system.mem_ctrl.perBankWrBursts::10                 7                       # Per bank write bursts
system.mem_ctrl.perBankWrBursts::11                 8                       # Per bank write bursts
system.mem_ctrl.perBankWrBursts::12                 2                       # Per bank write bursts
system.mem_ctrl.perBankWrBursts::13                16                       # Per bank write bursts
system.mem_ctrl.perBankWrBursts::14                17                       # Per bank write bursts
system.mem_ctrl.perBankWrBursts::15                 8                       # Per bank write bursts
system.mem_ctrl.numRdRetry                          0                       # Number of times read queue was full causing retry
system.mem_ctrl.numWrRetry                          0                       # Number of times write queue was full causing retry
system.mem_ctrl.totGap                       51599000                       # Total gap between requests
system.mem_ctrl.readPktSize::0                      0                       # Read request sizes (log2)
system.mem_ctrl.readPktSize::1                      0                       # Read request sizes (log2)
system.mem_ctrl.readPktSize::2                      0                       # Read request sizes (log2)
system.mem_ctrl.readPktSize::3                      0                       # Read request sizes (log2)
system.mem_ctrl.readPktSize::4                      0                       # Read request sizes (log2)
system.mem_ctrl.readPktSize::5                      0                       # Read request sizes (log2)
system.mem_ctrl.readPktSize::6                    648                       # Read request sizes (log2)
system.mem_ctrl.writePktSize::0                     0                       # Write request sizes (log2)
system.mem_ctrl.writePktSize::1                     0                       # Write request sizes (log2)
system.mem_ctrl.writePktSize::2                     0                       # Write request sizes (log2)
system.mem_ctrl.writePktSize::3                     0                       # Write request sizes (log2)
system.mem_ctrl.writePktSize::4                     0                       # Write request sizes (log2)
system.mem_ctrl.writePktSize::5                     0                       # Write request sizes (log2)
system.mem_ctrl.writePktSize::6                   520                       # Write request sizes (log2)
system.mem_ctrl.rdQLenPdf::0                      600                       # What read queue length does an incoming req see
system.mem_ctrl.rdQLenPdf::1                        0                       # What read queue length does an incoming req see
system.mem_ctrl.rdQLenPdf::2                        0                       # What read queue length does an incoming req see
system.mem_ctrl.rdQLenPdf::3                        0                       # What read queue length does an incoming req see
system.mem_ctrl.rdQLenPdf::4                        0                       # What read queue length does an incoming req see
system.mem_ctrl.rdQLenPdf::5                        0                       # What read queue length does an incoming req see
system.mem_ctrl.rdQLenPdf::6                        0                       # What read queue length does an incoming req see
system.mem_ctrl.rdQLenPdf::7                        0                       # What read queue length does an incoming req see
system.mem_ctrl.rdQLenPdf::8                        0                       # What read queue length does an incoming req see
system.mem_ctrl.rdQLenPdf::9                        0                       # What read queue length does an incoming req see
system.mem_ctrl.rdQLenPdf::10                       0                       # What read queue length does an incoming req see
system.mem_ctrl.rdQLenPdf::11                       0                       # What read queue length does an incoming req see
system.mem_ctrl.rdQLenPdf::12                       0                       # What read queue length does an incoming req see
system.mem_ctrl.rdQLenPdf::13                       0                       # What read queue length does an incoming req see
system.mem_ctrl.rdQLenPdf::14                       0                       # What read queue length does an incoming req see
system.mem_ctrl.rdQLenPdf::15                       0                       # What read queue length does an incoming req see
system.mem_ctrl.rdQLenPdf::16                       0                       # What read queue length does an incoming req see
system.mem_ctrl.rdQLenPdf::17                       0                       # What read queue length does an incoming req see
system.mem_ctrl.rdQLenPdf::18                       0                       # What read queue length does an incoming req see
system.mem_ctrl.rdQLenPdf::19                       0                       # What read queue length does an incoming req see
system.mem_ctrl.rdQLenPdf::20                       0                       # What read queue length does an incoming req see
system.mem_ctrl.rdQLenPdf::21                       0                       # What read queue length does an incoming req see
system.mem_ctrl.rdQLenPdf::22                       0                       # What read queue length does an incoming req see
system.mem_ctrl.rdQLenPdf::23                       0                       # What read queue length does an incoming req see
system.mem_ctrl.rdQLenPdf::24                       0                       # What read queue length does an incoming req see
system.mem_ctrl.rdQLenPdf::25                       0                       # What read queue length does an incoming req see
system.mem_ctrl.rdQLenPdf::26                       0                       # What read queue length does an incoming req see
system.mem_ctrl.rdQLenPdf::27                       0                       # What read queue length does an incoming req see
system.mem_ctrl.rdQLenPdf::28                       0                       # What read queue length does an incoming req see
system.mem_ctrl.rdQLenPdf::29                       0                       # What read queue length does an incoming req see
system.mem_ctrl.rdQLenPdf::30                       0                       # What read queue length does an incoming req see
system.mem_ctrl.rdQLenPdf::31                       0                       # What read queue length does an incoming req see
system.mem_ctrl.wrQLenPdf::0                        1                       # What write queue length does an incoming req see
system.mem_ctrl.wrQLenPdf::1                        1                       # What write queue length does an incoming req see
system.mem_ctrl.wrQLenPdf::2                        1                       # What write queue length does an incoming req see
system.mem_ctrl.wrQLenPdf::3                        1                       # What write queue length does an incoming req see
system.mem_ctrl.wrQLenPdf::4                        1                       # What write queue length does an incoming req see
system.mem_ctrl.wrQLenPdf::5                        1                       # What write queue length does an incoming req see
system.mem_ctrl.wrQLenPdf::6                        1                       # What write queue length does an incoming req see
system.mem_ctrl.wrQLenPdf::7                        1                       # What write queue length does an incoming req see
system.mem_ctrl.wrQLenPdf::8                        1                       # What write queue length does an incoming req see
system.mem_ctrl.wrQLenPdf::9                        1                       # What write queue length does an incoming req see
system.mem_ctrl.wrQLenPdf::10                       1                       # What write queue length does an incoming req see
system.mem_ctrl.wrQLenPdf::11                       1                       # What write queue length does an incoming req see
system.mem_ctrl.wrQLenPdf::12                       1                       # What write queue length does an incoming req see
system.mem_ctrl.wrQLenPdf::13                       1                       # What write queue length does an incoming req see
system.mem_ctrl.wrQLenPdf::14                       1                       # What write queue length does an incoming req see
system.mem_ctrl.wrQLenPdf::15                       1                       # What write queue length does an incoming req see
system.mem_ctrl.wrQLenPdf::16                       1                       # What write queue length does an incoming req see
system.mem_ctrl.wrQLenPdf::17                      27                       # What write queue length does an incoming req see
system.mem_ctrl.wrQLenPdf::18                      32                       # What write queue length does an incoming req see
system.mem_ctrl.wrQLenPdf::19                      32                       # What write queue length does an incoming req see
system.mem_ctrl.wrQLenPdf::20                      32                       # What write queue length does an incoming req see
system.mem_ctrl.wrQLenPdf::21                      32                       # What write queue length does an incoming req see
system.mem_ctrl.wrQLenPdf::22                      32                       # What write queue length does an incoming req see
system.mem_ctrl.wrQLenPdf::23                      33                       # What write queue length does an incoming req see
system.mem_ctrl.wrQLenPdf::24                      32                       # What write queue length does an incoming req see
system.mem_ctrl.wrQLenPdf::25                      31                       # What write queue length does an incoming req see
system.mem_ctrl.wrQLenPdf::26                      31                       # What write queue length does an incoming req see
system.mem_ctrl.wrQLenPdf::27                      31                       # What write queue length does an incoming req see
system.mem_ctrl.wrQLenPdf::28                      31                       # What write queue length does an incoming req see
system.mem_ctrl.wrQLenPdf::29                      31                       # What write queue length does an incoming req see
system.mem_ctrl.wrQLenPdf::30                      31                       # What write queue length does an incoming req see
system.mem_ctrl.wrQLenPdf::31                      31                       # What write queue length does an incoming req see
system.mem_ctrl.wrQLenPdf::32                      31                       # What write queue length does an incoming req see
system.mem_ctrl.wrQLenPdf::33                       0                       # What write queue length does an incoming req see
system.mem_ctrl.wrQLenPdf::34                       0                       # What write queue length does an incoming req see
system.mem_ctrl.wrQLenPdf::35                       0                       # What write queue length does an incoming req see
system.mem_ctrl.wrQLenPdf::36                       0                       # What write queue length does an incoming req see
system.mem_ctrl.wrQLenPdf::37                       0                       # What write queue length does an incoming req see
system.mem_ctrl.wrQLenPdf::38                       0                       # What write queue length does an incoming req see
system.mem_ctrl.wrQLenPdf::39                       0                       # What write queue length does an incoming req see
system.mem_ctrl.wrQLenPdf::40                       0                       # What write queue length does an incoming req see
system.mem_ctrl.wrQLenPdf::41                       0                       # What write queue length does an incoming req see
system.mem_ctrl.wrQLenPdf::42                       0                       # What write queue length does an incoming req see
system.mem_ctrl.wrQLenPdf::43                       0                       # What write queue length does an incoming req see
system.mem_ctrl.wrQLenPdf::44                       0                       # What write queue length does an incoming req see
system.mem_ctrl.wrQLenPdf::45                       0                       # What write queue length does an incoming req see
system.mem_ctrl.wrQLenPdf::46                       0                       # What write queue length does an incoming req see
system.mem_ctrl.wrQLenPdf::47                       0                       # What write queue length does an incoming req see
system.mem_ctrl.wrQLenPdf::48                       0                       # What write queue length does an incoming req see
system.mem_ctrl.wrQLenPdf::49                       0                       # What write queue length does an incoming req see
system.mem_ctrl.wrQLenPdf::50                       0                       # What write queue length does an incoming req see
system.mem_ctrl.wrQLenPdf::51                       0                       # What write queue length does an incoming req see
system.mem_ctrl.wrQLenPdf::52                       0                       # What write queue length does an incoming req see
system.mem_ctrl.wrQLenPdf::53                       0                       # What write queue length does an incoming req see
system.mem_ctrl.wrQLenPdf::54                       0                       # What write queue length does an incoming req see
system.mem_ctrl.wrQLenPdf::55                       0                       # What write queue length does an incoming req see
system.mem_ctrl.wrQLenPdf::56                       0                       # What write queue length does an incoming req see
system.mem_ctrl.wrQLenPdf::57                       0                       # What write queue length does an incoming req see
system.mem_ctrl.wrQLenPdf::58                       0                       # What write queue length does an incoming req see
system.mem_ctrl.wrQLenPdf::59                       0                       # What write queue length does an incoming req see
system.mem_ctrl.wrQLenPdf::60                       0                       # What write queue length does an incoming req see
system.mem_ctrl.wrQLenPdf::61                       0                       # What write queue length does an incoming req see
system.mem_ctrl.wrQLenPdf::62                       0                       # What write queue length does an incoming req see
system.mem_ctrl.wrQLenPdf::63                       0                       # What write queue length does an incoming req see
system.mem_ctrl.bytesPerActivate::samples          204                       # Bytes accessed per row activation
system.mem_ctrl.bytesPerActivate::mean     330.039216                       # Bytes accessed per row activation
system.mem_ctrl.bytesPerActivate::gmean    216.652820                       # Bytes accessed per row activation
system.mem_ctrl.bytesPerActivate::stdev    307.720426                       # Bytes accessed per row activation
system.mem_ctrl.bytesPerActivate::0-127            48     23.53%     23.53% # Bytes accessed per row activation
system.mem_ctrl.bytesPerActivate::128-255           57     27.94%     51.47% # Bytes accessed per row activation
system.mem_ctrl.bytesPerActivate::256-383           35     17.16%     68.63% # Bytes accessed per row activation
system.mem_ctrl.bytesPerActivate::384-511           20      9.80%     78.43% # Bytes accessed per row activation
system.mem_ctrl.bytesPerActivate::512-639            6      2.94%     81.37% # Bytes accessed per row activation
system.mem_ctrl.bytesPerActivate::640-767            6      2.94%     84.31% # Bytes accessed per row activation
system.mem_ctrl.bytesPerActivate::768-895            7      3.43%     87.75% # Bytes accessed per row activation
system.mem_ctrl.bytesPerActivate::896-1023            6      2.94%     90.69% # Bytes accessed per row activation
system.mem_ctrl.bytesPerActivate::1024-1151           19      9.31%    100.00% # Bytes accessed per row activation
system.mem_ctrl.bytesPerActivate::total           204                       # Bytes accessed per row activation
system.mem_ctrl.rdPerTurnAround::samples           31                       # Reads before turning the bus around for writes
system.mem_ctrl.rdPerTurnAround::mean       19.225806                       # Reads before turning the bus around for writes
system.mem_ctrl.rdPerTurnAround::gmean      15.660736                       # Reads before turning the bus around for writes
system.mem_ctrl.rdPerTurnAround::stdev      25.976540                       # Reads before turning the bus around for writes
system.mem_ctrl.rdPerTurnAround::8-15              22     70.97%     70.97% # Reads before turning the bus around for writes
system.mem_ctrl.rdPerTurnAround::16-23              8     25.81%     96.77% # Reads before turning the bus around for writes
system.mem_ctrl.rdPerTurnAround::152-159            1      3.23%    100.00% # Reads before turning the bus around for writes
system.mem_ctrl.rdPerTurnAround::total             31                       # Reads before turning the bus around for writes
system.mem_ctrl.wrPerTurnAround::samples           31                       # Writes before turning the bus around for reads
system.mem_ctrl.wrPerTurnAround::mean              16                       # Writes before turning the bus around for reads
system.mem_ctrl.wrPerTurnAround::gmean      16.000000                       # Writes before turning the bus around for reads
system.mem_ctrl.wrPerTurnAround::16                31    100.00%    100.00% # Writes before turning the bus around for reads
system.mem_ctrl.wrPerTurnAround::total             31                       # Writes before turning the bus around for reads
system.mem_ctrl.totQLat                      10361500                       # Total ticks spent queuing
system.mem_ctrl.totMemAccLat                 21611500                       # Total ticks spent from burst creation until serviced by the DRAM
system.mem_ctrl.totBusLat                     3000000                       # Total ticks spent in databus transfers
system.mem_ctrl.avgQLat                      17269.17                       # Average queueing delay per DRAM burst
system.mem_ctrl.avgBusLat                     5000.00                       # Average bus latency per DRAM burst
system.mem_ctrl.avgMemAccLat                 36019.17                       # Average memory access latency per DRAM burst
system.mem_ctrl.avgRdBW                        744.09                       # Average DRAM read bandwidth in MiByte/s
system.mem_ctrl.avgWrBW                        615.11                       # Average achieved write bandwidth in MiByte/s
system.mem_ctrl.avgRdBWSys                     803.61                       # Average system read bandwidth in MiByte/s
system.mem_ctrl.avgWrBWSys                     644.87                       # Average system write bandwidth in MiByte/s
system.mem_ctrl.peakBW                       12800.00                       # Theoretical peak bandwidth in MiByte/s
system.mem_ctrl.busUtil                         10.62                       # Data bus utilization in percentage
system.mem_ctrl.busUtilRead                      5.81                       # Data bus utilization in percentage for reads
system.mem_ctrl.busUtilWrite                     4.81                       # Data bus utilization in percentage for writes
system.mem_ctrl.avgRdQLen                        1.00                       # Average read queue length when enqueuing
system.mem_ctrl.avgWrQLen                       20.68                       # Average write queue length when enqueuing
system.mem_ctrl.readRowHits                       441                       # Number of row buffer hits during reads
system.mem_ctrl.writeRowHits                      437                       # Number of row buffer hits during writes
system.mem_ctrl.readRowHitRate                  73.50                       # Row buffer hit rate for reads
system.mem_ctrl.writeRowHitRate                 84.53                       # Row buffer hit rate for writes
system.mem_ctrl.avgGap                       44177.23                       # Average gap between requests
system.mem_ctrl.pageHitRate                     78.60                       # Row buffer hit rate, read and write combined
system.mem_ctrl_0.actEnergy                   1235220                       # Energy for activate commands per rank (pJ)
system.mem_ctrl_0.preEnergy                    633765                       # Energy for precharge commands per rank (pJ)
system.mem_ctrl_0.readEnergy                  3141600                       # Energy for read commands per rank (pJ)
system.mem_ctrl_0.writeEnergy                 2061900                       # Energy for write commands per rank (pJ)
system.mem_ctrl_0.refreshEnergy          3687840.000000                       # Energy for refresh commands per rank (pJ)
system.mem_ctrl_0.actBackEnergy              10730820                       # Energy for active background per rank (pJ)
system.mem_ctrl_0.preBackEnergy                 78240                       # Energy for precharge background per rank (pJ)
system.mem_ctrl_0.actPowerDownEnergy         12256140                       # Energy for active power-down per rank (pJ)
system.mem_ctrl_0.prePowerDownEnergy           381600                       # Energy for precharge power-down per rank (pJ)
system.mem_ctrl_0.selfRefreshEnergy                 0                       # Energy for self refresh per rank (pJ)
system.mem_ctrl_0.totalEnergy                34207125                       # Total energy per rank (pJ)
system.mem_ctrl_0.averagePower             662.832437                       # Core power per rank (mW)
system.mem_ctrl_0.totalIdleTime              27820750                       # Total Idle time Per DRAM Rank
system.mem_ctrl_0.memoryStateTime::IDLE         37000                       # Time in different power states
system.mem_ctrl_0.memoryStateTime::REF        1560000                       # Time in different power states
system.mem_ctrl_0.memoryStateTime::SREF             0                       # Time in different power states
system.mem_ctrl_0.memoryStateTime::PRE_PDN       994000                       # Time in different power states
system.mem_ctrl_0.memoryStateTime::ACT       22152000                       # Time in different power states
system.mem_ctrl_0.memoryStateTime::ACT_PDN     26864000                       # Time in different power states
system.mem_ctrl_1.actEnergy                    321300                       # Energy for activate commands per rank (pJ)
system.mem_ctrl_1.preEnergy                    140415                       # Energy for precharge commands per rank (pJ)
system.mem_ctrl_1.readEnergy                  1142400                       # Energy for read commands per rank (pJ)
system.mem_ctrl_1.writeEnergy                  527220                       # Energy for write commands per rank (pJ)
system.mem_ctrl_1.refreshEnergy          3687840.000000                       # Energy for refresh commands per rank (pJ)
system.mem_ctrl_1.actBackEnergy               6240930                       # Energy for active background per rank (pJ)
system.mem_ctrl_1.preBackEnergy                236640                       # Energy for precharge background per rank (pJ)
system.mem_ctrl_1.actPowerDownEnergy         14649000                       # Energy for active power-down per rank (pJ)
system.mem_ctrl_1.prePowerDownEnergy          1989120                       # Energy for precharge power-down per rank (pJ)
system.mem_ctrl_1.selfRefreshEnergy                 0                       # Energy for self refresh per rank (pJ)
system.mem_ctrl_1.totalEnergy                28934865                       # Total energy per rank (pJ)
system.mem_ctrl_1.averagePower             560.671705                       # Core power per rank (mW)
system.mem_ctrl_1.totalIdleTime              36897000                       # Total Idle time Per DRAM Rank
system.mem_ctrl_1.memoryStateTime::IDLE        450000                       # Time in different power states
system.mem_ctrl_1.memoryStateTime::REF        1560000                       # Time in different power states
system.mem_ctrl_1.memoryStateTime::SREF             0                       # Time in different power states
system.mem_ctrl_1.memoryStateTime::PRE_PDN      5179000                       # Time in different power states
system.mem_ctrl_1.memoryStateTime::ACT       12296750                       # Time in different power states
system.mem_ctrl_1.memoryStateTime::ACT_PDN     32121250                       # Time in different power states
system.pwrStateResidencyTicks::UNDEFINED     51607000                       # Cumulative time (in ticks) in various power states
system.cache.pwrStateResidencyTicks::UNDEFINED     51607000                       # Cumulative time (in ticks) in various power states
system.cache.hits                                9690                       # Number of hits
system.cache.misses                               648                       # Number of misses
system.cache.missLatency::samples                 648                       # Ticks for misses to the cache
system.cache.missLatency::mean           63686.728395                       # Ticks for misses to the cache
system.cache.missLatency::gmean          58518.848734                       # Ticks for misses to the cache
system.cache.missLatency::stdev          33298.504867                       # Ticks for misses to the cache
system.cache.missLatency::0-32767                  48      7.41%      7.41% # Ticks for misses to the cache
system.cache.missLatency::32768-65535             427     65.90%     73.30% # Ticks for misses to the cache
system.cache.missLatency::65536-98303             136     20.99%     94.29% # Ticks for misses to the cache
system.cache.missLatency::98304-131071             11      1.70%     95.99% # Ticks for misses to the cache
system.cache.missLatency::131072-163839            19      2.93%     98.92% # Ticks for misses to the cache
system.cache.missLatency::163840-196607             1      0.15%     99.07% # Ticks for misses to the cache
system.cache.missLatency::196608-229375             0      0.00%     99.07% # Ticks for misses to the cache
system.cache.missLatency::229376-262143             0      0.00%     99.07% # Ticks for misses to the cache
system.cache.missLatency::262144-294911             1      0.15%     99.23% # Ticks for misses to the cache
system.cache.missLatency::294912-327679             2      0.31%     99.54% # Ticks for misses to the cache
system.cache.missLatency::327680-360447             3      0.46%    100.00% # Ticks for misses to the cache
system.cache.missLatency::360448-393215             0      0.00%    100.00% # Ticks for misses to the cache
system.cache.missLatency::393216-425983             0      0.00%    100.00% # Ticks for misses to the cache
system.cache.missLatency::425984-458751             0      0.00%    100.00% # Ticks for misses to the cache
system.cache.missLatency::458752-491519             0      0.00%    100.00% # Ticks for misses to the cache
system.cache.missLatency::491520-524287             0      0.00%    100.00% # Ticks for misses to the cache
system.cache.missLatency::total                   648                       # Ticks for misses to the cache
system.cache.hitRatio                        0.937319                       # The ratio of hits to the total accesses to the cache
system.cpu.dtb.fetch_hits                           0                       # ITB hits
system.cpu.dtb.fetch_misses                         0                       # ITB misses
system.cpu.dtb.fetch_acv                            0                       # ITB acv
system.cpu.dtb.fetch_accesses                       0                       # ITB accesses
system.cpu.dtb.read_hits                         1526                       # DTB read hits
system.cpu.dtb.read_misses                         10                       # DTB read misses
system.cpu.dtb.read_acv                             0                       # DTB read access violations
system.cpu.dtb.read_accesses                     1536                       # DTB read accesses
system.cpu.dtb.write_hits                        1036                       # DTB write hits
system.cpu.dtb.write_misses                         2                       # DTB write misses
system.cpu.dtb.write_acv                            0                       # DTB write access violations
system.cpu.dtb.write_accesses                    1038                       # DTB write accesses
system.cpu.dtb.data_hits                         2562                       # DTB hits
system.cpu.dtb.data_misses                         12                       # DTB misses
system.cpu.dtb.data_acv                             0                       # DTB access violations
system.cpu.dtb.data_accesses                     2574                       # DTB accesses
system.cpu.itb.fetch_hits                        7777                       # ITB hits
system.cpu.itb.fetch_misses                        18                       # ITB misses
system.cpu.itb.fetch_acv                            0                       # ITB acv
system.cpu.itb.fetch_accesses                    7795                       # ITB accesses
system.cpu.itb.read_hits                            0                       # DTB read hits
system.cpu.itb.read_misses                          0                       # DTB read misses
system.cpu.itb.read_acv                             0                       # DTB read access violations
system.cpu.itb.read_accesses                        0                       # DTB read accesses
system.cpu.itb.write_hits                           0                       # DTB write hits
system.cpu.itb.write_misses                         0                       # DTB write misses
system.cpu.itb.write_acv                            0                       # DTB write access violations
system.cpu.itb.write_accesses                       0                       # DTB write accesses
system.cpu.itb.data_hits                            0                       # DTB hits
system.cpu.itb.data_misses                          0                       # DTB misses
system.cpu.itb.data_acv                             0                       # DTB access violations
system.cpu.itb.data_accesses                        0                       # DTB accesses
system.cpu.workload.numSyscalls                    10                       # Number of system calls
system.cpu.pwrStateResidencyTicks::ON        51607000                       # Cumulative time (in ticks) in various power states
system.cpu.numCycles                            51607                       # number of cpu cycles simulated
system.cpu.numWorkItemsStarted                      0                       # number of work items this cpu started
system.cpu.numWorkItemsCompleted                    0                       # number of work items this cpu completed
system.cpu.committedInsts                        7764                       # Number of instructions committed
system.cpu.committedOps                          7764                       # Number of ops (including micro ops) committed
system.cpu.num_int_alu_accesses                  7679                       # Number of integer alu accesses
system.cpu.num_fp_alu_accesses                     17                       # Number of float alu accesses
system.cpu.num_vec_alu_accesses                     0                       # Number of vector alu accesses
system.cpu.num_func_calls                         259                       # number of times a function call or return occured
system.cpu.num_conditional_control_insts          906                       # number of instructions that are conditional controls
system.cpu.num_int_insts                         7679                       # number of integer instructions
system.cpu.num_fp_insts                            17                       # number of float instructions
system.cpu.num_vec_insts                            0                       # number of vector instructions
system.cpu.num_int_register_reads               10227                       # number of times the integer registers were read
system.cpu.num_int_register_writes               5586                       # number of times the integer registers were written
system.cpu.num_fp_register_reads                   14                       # number of times the floating registers were read
system.cpu.num_fp_register_writes                   5                       # number of times the floating registers were written
system.cpu.num_vec_register_reads                   0                       # number of times the vector registers were read
system.cpu.num_vec_register_writes                  0                       # number of times the vector registers were written
system.cpu.num_mem_refs                          2574                       # number of memory refs
system.cpu.num_load_insts                        1536                       # Number of load instructions
system.cpu.num_store_insts                       1038                       # Number of store instructions
system.cpu.num_idle_cycles                          0                       # Number of idle cycles
system.cpu.num_busy_cycles                      51607                       # Number of busy cycles
system.cpu.not_idle_fraction                        1                       # Percentage of non-idle cycles
system.cpu.idle_fraction                            0                       # Percentage of idle cycles
system.cpu.Branches                              1240                       # Number of branches fetched
system.cpu.op_class::No_OpClass                    22      0.28%      0.28% # Class of executed instruction
system.cpu.op_class::IntAlu                      5175     66.55%     66.83% # Class of executed instruction
system.cpu.op_class::IntMult                        1      0.01%     66.85% # Class of executed instruction
system.cpu.op_class::IntDiv                         0      0.00%     66.85% # Class of executed instruction
system.cpu.op_class::FloatAdd                       3      0.04%     66.89% # Class of executed instruction
system.cpu.op_class::FloatCmp                       1      0.01%     66.90% # Class of executed instruction
system.cpu.op_class::FloatCvt                       0      0.00%     66.90% # Class of executed instruction
system.cpu.op_class::FloatMult                      0      0.00%     66.90% # Class of executed instruction
system.cpu.op_class::FloatMultAcc                   0      0.00%     66.90% # Class of executed instruction
system.cpu.op_class::FloatDiv                       0      0.00%     66.90% # Class of executed instruction
system.cpu.op_class::FloatMisc                      0      0.00%     66.90% # Class of executed instruction
system.cpu.op_class::FloatSqrt                      0      0.00%     66.90% # Class of executed instruction
system.cpu.op_class::SimdAdd                        0      0.00%     66.90% # Class of executed instruction
system.cpu.op_class::SimdAddAcc                     0      0.00%     66.90% # Class of executed instruction
system.cpu.op_class::SimdAlu                        0      0.00%     66.90% # Class of executed instruction
system.cpu.op_class::SimdCmp                        0      0.00%     66.90% # Class of executed instruction
system.cpu.op_class::SimdCvt                        0      0.00%     66.90% # Class of executed instruction
system.cpu.op_class::SimdMisc                       0      0.00%     66.90% # Class of executed instruction
system.cpu.op_class::SimdMult                       0      0.00%     66.90% # Class of executed instruction
system.cpu.op_class::SimdMultAcc                    0      0.00%     66.90% # Class of executed instruction
system.cpu.op_class::SimdShift                      0      0.00%     66.90% # Class of executed instruction
system.cpu.op_class::SimdShiftAcc                   0      0.00%     66.90% # Class of executed instruction
system.cpu.op_class::SimdSqrt                       0      0.00%     66.90% # Class of executed instruction
system.cpu.op_class::SimdFloatAdd                   0      0.00%     66.90% # Class of executed instruction
system.cpu.op_class::SimdFloatAlu                   0      0.00%     66.90% # Class of executed instruction
system.cpu.op_class::SimdFloatCmp                   0      0.00%     66.90% # Class of executed instruction
system.cpu.op_class::SimdFloatCvt                   0      0.00%     66.90% # Class of executed instruction
system.cpu.op_class::SimdFloatDiv                   0      0.00%     66.90% # Class of executed instruction
system.cpu.op_class::SimdFloatMisc                  0      0.00%     66.90% # Class of executed instruction
system.cpu.op_class::SimdFloatMult                  0      0.00%     66.90% # Class of executed instruction
system.cpu.op_class::SimdFloatMultAcc               0      0.00%     66.90% # Class of executed instruction
system.cpu.op_class::SimdFloatSqrt                  0      0.00%     66.90% # Class of executed instruction
system.cpu.op_class::MemRead                     1533     19.71%     86.61% # Class of executed instruction
system.cpu.op_class::MemWrite                    1028     13.22%     99.83% # Class of executed instruction
system.cpu.op_class::FloatMemRead                   3      0.04%     99.87% # Class of executed instruction
system.cpu.op_class::FloatMemWrite                 10      0.13%    100.00% # Class of executed instruction
system.cpu.op_class::IprAccess                      0      0.00%    100.00% # Class of executed instruction
system.cpu.op_class::InstPrefetch                   0      0.00%    100.00% # Class of executed instruction
system.cpu.op_class::total                       7776                       # Class of executed instruction
system.membus.snoop_filter.tot_requests             0                       # Total number of requests made to the snoop filter.
system.membus.snoop_filter.hit_single_requests            0                       # Number of requests hitting in the snoop filter with a single holder of the requested data.
system.membus.snoop_filter.hit_multi_requests            0                       # Number of requests hitting in the snoop filter with multiple (>1) holders of the requested data.
system.membus.snoop_filter.tot_snoops               0                       # Total number of snoops made to the snoop filter.
system.membus.snoop_filter.hit_single_snoops            0                       # Number of snoops hitting in the snoop filter with a single holder of the requested data.
system.membus.snoop_filter.hit_multi_snoops            0                       # Number of snoops hitting in the snoop filter with multiple (>1) holders of the requested data.
system.membus.pwrStateResidencyTicks::UNDEFINED     51607000                       # Cumulative time (in ticks) in various power states
system.membus.trans_dist::ReadReq                 648                       # Transaction distribution
system.membus.trans_dist::ReadResp                648                       # Transaction distribution
system.membus.trans_dist::WritebackDirty          520                       # Transaction distribution
system.membus.pkt_count_system.cache.mem_side::system.mem_ctrl.port         1816                       # Packet count per connected master and slave (bytes)
system.membus.pkt_count::total                   1816                       # Packet count per connected master and slave (bytes)
system.membus.pkt_size_system.cache.mem_side::system.mem_ctrl.port        74752                       # Cumulative packet size per connected master and slave (bytes)
system.membus.pkt_size::total                   74752                       # Cumulative packet size per connected master and slave (bytes)
system.membus.snoops                                0                       # Total snoops (count)
system.membus.snoopTraffic                          0                       # Total snoop traffic (bytes)
system.membus.snoop_fanout::samples               648                       # Request fanout histogram
system.membus.snoop_fanout::mean                    0                       # Request fanout histogram
system.membus.snoop_fanout::stdev                   0                       # Request fanout histogram
system.membus.snoop_fanout::underflows              0      0.00%      0.00% # Request fanout histogram
system.membus.snoop_fanout::0                     648    100.00%    100.00% # Request fanout histogram
system.membus.snoop_fanout::overflows               0      0.00%    100.00% # Request fanout histogram
system.membus.snoop_fanout::min_value               0                       # Request fanout histogram
system.membus.snoop_fanout::max_value               0                       # Request fanout histogram
system.membus.snoop_fanout::total                 648                       # Request fanout histogram
system.membus.reqLayer0.occupancy             3248000                       # Layer occupancy (ticks)
system.membus.reqLayer0.utilization               6.3                       # Layer utilization (%)
system.membus.respLayer0.occupancy            3441500                       # Layer occupancy (ticks)
system.membus.respLayer0.utilization              6.7                       # Layer utilization (%)

---------- End Simulation Statistics   ----------
