
---------- Begin Simulation Statistics ----------
sim_seconds                                  0.000150                       # Number of seconds simulated
sim_ticks                                   150267000                       # Number of ticks simulated
final_tick                                  150267000                       # Number of ticks from beginning of simulation (restored from checkpoints and never reset)
sim_freq                                 1000000000000                       # Frequency of simulated ticks
host_inst_rate                                 283318                       # Simulator instruction rate (inst/s)
host_op_rate                                   283218                       # Simulator op (including micro ops) rate (op/s)
host_tick_rate                             4852644836                       # Simulator tick rate (ticks/s)
host_mem_usage                                6706324                       # Number of bytes of host memory used
host_seconds                                     0.03                       # Real time elapsed on the host
sim_insts                                        8767                       # Number of instructions simulated
sim_ops                                          8767                       # Number of ops (including micro ops) simulated
system.clk_domain.voltage_domain.voltage            1                       # Voltage in Volts
system.clk_domain.clock                          1000                       # Clock period in ticks
system.mem_ctrl.pwrStateResidencyTicks::UNDEFINED    150267000                       # Cumulative time (in ticks) in various power states
system.mem_ctrl.bytes_read::cpu.inst           168512                       # Number of bytes read from this memory
system.mem_ctrl.bytes_read::cpu.data           108288                       # Number of bytes read from this memory
system.mem_ctrl.bytes_read::total              276800                       # Number of bytes read from this memory
system.mem_ctrl.bytes_inst_read::cpu.inst       168512                       # Number of instructions bytes read from this memory
system.mem_ctrl.bytes_inst_read::total         168512                       # Number of instructions bytes read from this memory
system.mem_ctrl.bytes_written::writebacks       268608                       # Number of bytes written to this memory
system.mem_ctrl.bytes_written::total           268608                       # Number of bytes written to this memory
system.mem_ctrl.num_reads::cpu.inst              2633                       # Number of read requests responded to by this memory
system.mem_ctrl.num_reads::cpu.data              1692                       # Number of read requests responded to by this memory
system.mem_ctrl.num_reads::total                 4325                       # Number of read requests responded to by this memory
system.mem_ctrl.num_writes::writebacks           4197                       # Number of write requests responded to by this memory
system.mem_ctrl.num_writes::total                4197                       # Number of write requests responded to by this memory
system.mem_ctrl.bw_read::cpu.inst          1121417211                       # Total read bandwidth from this memory (bytes/s)
system.mem_ctrl.bw_read::cpu.data           720637266                       # Total read bandwidth from this memory (bytes/s)
system.mem_ctrl.bw_read::total             1842054476                       # Total read bandwidth from this memory (bytes/s)
system.mem_ctrl.bw_inst_read::cpu.inst     1121417211                       # Instruction read bandwidth from this memory (bytes/s)
system.mem_ctrl.bw_inst_read::total        1121417211                       # Instruction read bandwidth from this memory (bytes/s)
system.mem_ctrl.bw_write::writebacks       1787538182                       # Write bandwidth from this memory (bytes/s)
system.mem_ctrl.bw_write::total            1787538182                       # Write bandwidth from this memory (bytes/s)
system.mem_ctrl.bw_total::writebacks       1787538182                       # Total bandwidth to/from this memory (bytes/s)
system.mem_ctrl.bw_total::cpu.inst         1121417211                       # Total bandwidth to/from this memory (bytes/s)
system.mem_ctrl.bw_total::cpu.data          720637266                       # Total bandwidth to/from this memory (bytes/s)
system.mem_ctrl.bw_total::total            3629592658                       # Total bandwidth to/from this memory (bytes/s)
system.mem_ctrl.readReqs                         4325                       # Number of read requests accepted
system.mem_ctrl.writeReqs                        4197                       # Number of write requests accepted
system.mem_ctrl.readBursts                       4325                       # Number of DRAM read bursts, including those serviced by the write queue
system.mem_ctrl.writeBursts                      4197                       # Number of DRAM write bursts, including those merged in the write queue
system.mem_ctrl.bytesReadDRAM                   55680                       # Total number of bytes read from DRAM
system.mem_ctrl.bytesReadWrQ                   221120                       # Total number of bytes read from write queue
system.mem_ctrl.bytesWritten                    46912                       # Total number of bytes written to DRAM
system.mem_ctrl.bytesReadSys                   276800                       # Total read bytes from the system interface side
system.mem_ctrl.bytesWrittenSys                268608                       # Total written bytes from the system interface side
system.mem_ctrl.servicedByWrQ                    3455                       # Number of DRAM read bursts serviced by the write queue
system.mem_ctrl.mergedWrBursts                   3434                       # Number of DRAM write bursts merged with an existing one
system.mem_ctrl.neitherReadNorWriteReqs             0                       # Number of requests that are neither read nor write
system.mem_ctrl.perBankRdBursts::0                 82                       # Per bank write bursts
system.mem_ctrl.perBankRdBursts::1                 22                       # Per bank write bursts
system.mem_ctrl.perBankRdBursts::2                131                       # Per bank write bursts
system.mem_ctrl.perBankRdBursts::3                 92                       # Per bank write bursts
system.mem_ctrl.perBankRdBursts::4                 99                       # Per bank write bursts
system.mem_ctrl.perBankRdBursts::5                 26                       # Per bank write bursts
system.mem_ctrl.perBankRdBursts::6                 29                       # Per bank write bursts
system.mem_ctrl.perBankRdBursts::7                 60                       # Per bank write bursts
system.mem_ctrl.perBankRdBursts::8                  4                       # Per bank write bursts
system.mem_ctrl.perBankRdBursts::9                104                       # Per bank write bursts
system.mem_ctrl.perBankRdBursts::10                 9                       # Per bank write bursts
system.mem_ctrl.perBankRdBursts::11                27                       # Per bank write bursts
system.mem_ctrl.perBankRdBursts::12                 4                       # Per bank write bursts
system.mem_ctrl.perBankRdBursts::13                34                       # Per bank write bursts
system.mem_ctrl.perBankRdBursts::14                90                       # Per bank write bursts
system.mem_ctrl.perBankRdBursts::15                57                       # Per bank write bursts
system.mem_ctrl.perBankWrBursts::0                 65                       # Per bank write bursts
system.mem_ctrl.perBankWrBursts::1                 21                       # Per bank write bursts
system.mem_ctrl.perBankWrBursts::2                 94                       # Per bank write bursts
system.mem_ctrl.perBankWrBursts::3                 72                       # Per bank write bursts
system.mem_ctrl.perBankWrBursts::4                 76                       # Per bank write bursts
system.mem_ctrl.perBankWrBursts::5                  7                       # Per bank write bursts
system.mem_ctrl.perBankWrBursts::6                 29                       # Per bank write bursts
system.mem_ctrl.perBankWrBursts::7                 60                       # Per bank write bursts
system.mem_ctrl.perBankWrBursts::8                  4                       # Per bank write bursts
system.mem_ctrl.perBankWrBursts::9                100                       # Per bank write bursts
system.mem_ctrl.perBankWrBursts::10                10                       # Per bank write bursts
system.mem_ctrl.perBankWrBursts::11                30                       # Per bank write bursts
system.mem_ctrl.perBankWrBursts::12                 3                       # Per bank write bursts
system.mem_ctrl.perBankWrBursts::13                31                       # Per bank write bursts
system.mem_ctrl.perBankWrBursts::14                80                       # Per bank write bursts
system.mem_ctrl.perBankWrBursts::15                51                       # Per bank write bursts
system.mem_ctrl.numRdRetry                          0                       # Number of times read queue was full causing retry
system.mem_ctrl.numWrRetry                          0                       # Number of times write queue was full causing retry
system.mem_ctrl.totGap                      150245000                       # Total gap between requests
system.mem_ctrl.readPktSize::0                      0                       # Read request sizes (log2)
system.mem_ctrl.readPktSize::1                      0                       # Read request sizes (log2)
system.mem_ctrl.readPktSize::2                      0                       # Read request sizes (log2)
system.mem_ctrl.readPktSize::3                      0                       # Read request sizes (log2)
system.mem_ctrl.readPktSize::4                      0                       # Read request sizes (log2)
system.mem_ctrl.readPktSize::5                      0                       # Read request sizes (log2)
system.mem_ctrl.readPktSize::6                   4325                       # Read request sizes (log2)
system.mem_ctrl.writePktSize::0                     0                       # Write request sizes (log2)
system.mem_ctrl.writePktSize::1                     0                       # Write request sizes (log2)
system.mem_ctrl.writePktSize::2                     0                       # Write request sizes (log2)
system.mem_ctrl.writePktSize::3                     0                       # Write request sizes (log2)
system.mem_ctrl.writePktSize::4                     0                       # Write request sizes (log2)
system.mem_ctrl.writePktSize::5                     0                       # Write request sizes (log2)
system.mem_ctrl.writePktSize::6                  4197                       # Write request sizes (log2)
system.mem_ctrl.rdQLenPdf::0                      870                       # What read queue length does an incoming req see
system.mem_ctrl.rdQLenPdf::1                        0                       # What read queue length does an incoming req see
system.mem_ctrl.rdQLenPdf::2                        0                       # What read queue length does an incoming req see
system.mem_ctrl.rdQLenPdf::3                        0                       # What read queue length does an incoming req see
system.mem_ctrl.rdQLenPdf::4                        0                       # What read queue length does an incoming req see
system.mem_ctrl.rdQLenPdf::5                        0                       # What read queue length does an incoming req see
system.mem_ctrl.rdQLenPdf::6                        0                       # What read queue length does an incoming req see
system.mem_ctrl.rdQLenPdf::7                        0                       # What read queue length does an incoming req see
system.mem_ctrl.rdQLenPdf::8                        0                       # What read queue length does an incoming req see
system.mem_ctrl.rdQLenPdf::9                        0                       # What read queue length does an incoming req see
system.mem_ctrl.rdQLenPdf::10                       0                       # What read queue length does an incoming req see
system.mem_ctrl.rdQLenPdf::11                       0                       # What read queue length does an incoming req see
system.mem_ctrl.rdQLenPdf::12                       0                       # What read queue length does an incoming req see
system.mem_ctrl.rdQLenPdf::13                       0                       # What read queue length does an incoming req see
system.mem_ctrl.rdQLenPdf::14                       0                       # What read queue length does an incoming req see
system.mem_ctrl.rdQLenPdf::15                       0                       # What read queue length does an incoming req see
system.mem_ctrl.rdQLenPdf::16                       0                       # What read queue length does an incoming req see
system.mem_ctrl.rdQLenPdf::17                       0                       # What read queue length does an incoming req see
system.mem_ctrl.rdQLenPdf::18                       0                       # What read queue length does an incoming req see
system.mem_ctrl.rdQLenPdf::19                       0                       # What read queue length does an incoming req see
system.mem_ctrl.rdQLenPdf::20                       0                       # What read queue length does an incoming req see
system.mem_ctrl.rdQLenPdf::21                       0                       # What read queue length does an incoming req see
system.mem_ctrl.rdQLenPdf::22                       0                       # What read queue length does an incoming req see
system.mem_ctrl.rdQLenPdf::23                       0                       # What read queue length does an incoming req see
system.mem_ctrl.rdQLenPdf::24                       0                       # What read queue length does an incoming req see
system.mem_ctrl.rdQLenPdf::25                       0                       # What read queue length does an incoming req see
system.mem_ctrl.rdQLenPdf::26                       0                       # What read queue length does an incoming req see
system.mem_ctrl.rdQLenPdf::27                       0                       # What read queue length does an incoming req see
system.mem_ctrl.rdQLenPdf::28                       0                       # What read queue length does an incoming req see
system.mem_ctrl.rdQLenPdf::29                       0                       # What read queue length does an incoming req see
system.mem_ctrl.rdQLenPdf::30                       0                       # What read queue length does an incoming req see
system.mem_ctrl.rdQLenPdf::31                       0                       # What read queue length does an incoming req see
system.mem_ctrl.wrQLenPdf::0                        1                       # What write queue length does an incoming req see
system.mem_ctrl.wrQLenPdf::1                        1                       # What write queue length does an incoming req see
system.mem_ctrl.wrQLenPdf::2                        1                       # What write queue length does an incoming req see
system.mem_ctrl.wrQLenPdf::3                        1                       # What write queue length does an incoming req see
system.mem_ctrl.wrQLenPdf::4                        1                       # What write queue length does an incoming req see
system.mem_ctrl.wrQLenPdf::5                        1                       # What write queue length does an incoming req see
system.mem_ctrl.wrQLenPdf::6                        1                       # What write queue length does an incoming req see
system.mem_ctrl.wrQLenPdf::7                        1                       # What write queue length does an incoming req see
system.mem_ctrl.wrQLenPdf::8                        1                       # What write queue length does an incoming req see
system.mem_ctrl.wrQLenPdf::9                        1                       # What write queue length does an incoming req see
system.mem_ctrl.wrQLenPdf::10                       1                       # What write queue length does an incoming req see
system.mem_ctrl.wrQLenPdf::11                       1                       # What write queue length does an incoming req see
system.mem_ctrl.wrQLenPdf::12                       1                       # What write queue length does an incoming req see
system.mem_ctrl.wrQLenPdf::13                       1                       # What write queue length does an incoming req see
system.mem_ctrl.wrQLenPdf::14                       1                       # What write queue length does an incoming req see
system.mem_ctrl.wrQLenPdf::15                      19                       # What write queue length does an incoming req see
system.mem_ctrl.wrQLenPdf::16                      21                       # What write queue length does an incoming req see
system.mem_ctrl.wrQLenPdf::17                      39                       # What write queue length does an incoming req see
system.mem_ctrl.wrQLenPdf::18                      45                       # What write queue length does an incoming req see
system.mem_ctrl.wrQLenPdf::19                      46                       # What write queue length does an incoming req see
system.mem_ctrl.wrQLenPdf::20                      44                       # What write queue length does an incoming req see
system.mem_ctrl.wrQLenPdf::21                      44                       # What write queue length does an incoming req see
system.mem_ctrl.wrQLenPdf::22                      44                       # What write queue length does an incoming req see
system.mem_ctrl.wrQLenPdf::23                      53                       # What write queue length does an incoming req see
system.mem_ctrl.wrQLenPdf::24                      44                       # What write queue length does an incoming req see
system.mem_ctrl.wrQLenPdf::25                      44                       # What write queue length does an incoming req see
system.mem_ctrl.wrQLenPdf::26                      44                       # What write queue length does an incoming req see
system.mem_ctrl.wrQLenPdf::27                      44                       # What write queue length does an incoming req see
system.mem_ctrl.wrQLenPdf::28                      44                       # What write queue length does an incoming req see
system.mem_ctrl.wrQLenPdf::29                      44                       # What write queue length does an incoming req see
system.mem_ctrl.wrQLenPdf::30                      43                       # What write queue length does an incoming req see
system.mem_ctrl.wrQLenPdf::31                      43                       # What write queue length does an incoming req see
system.mem_ctrl.wrQLenPdf::32                      43                       # What write queue length does an incoming req see
system.mem_ctrl.wrQLenPdf::33                       0                       # What write queue length does an incoming req see
system.mem_ctrl.wrQLenPdf::34                       0                       # What write queue length does an incoming req see
system.mem_ctrl.wrQLenPdf::35                       0                       # What write queue length does an incoming req see
system.mem_ctrl.wrQLenPdf::36                       0                       # What write queue length does an incoming req see
system.mem_ctrl.wrQLenPdf::37                       0                       # What write queue length does an incoming req see
system.mem_ctrl.wrQLenPdf::38                       0                       # What write queue length does an incoming req see
system.mem_ctrl.wrQLenPdf::39                       0                       # What write queue length does an incoming req see
system.mem_ctrl.wrQLenPdf::40                       0                       # What write queue length does an incoming req see
system.mem_ctrl.wrQLenPdf::41                       0                       # What write queue length does an incoming req see
system.mem_ctrl.wrQLenPdf::42                       0                       # What write queue length does an incoming req see
system.mem_ctrl.wrQLenPdf::43                       0                       # What write queue length does an incoming req see
system.mem_ctrl.wrQLenPdf::44                       0                       # What write queue length does an incoming req see
system.mem_ctrl.wrQLenPdf::45                       0                       # What write queue length does an incoming req see
system.mem_ctrl.wrQLenPdf::46                       0                       # What write queue length does an incoming req see
system.mem_ctrl.wrQLenPdf::47                       0                       # What write queue length does an incoming req see
system.mem_ctrl.wrQLenPdf::48                       0                       # What write queue length does an incoming req see
system.mem_ctrl.wrQLenPdf::49                       0                       # What write queue length does an incoming req see
system.mem_ctrl.wrQLenPdf::50                       0                       # What write queue length does an incoming req see
system.mem_ctrl.wrQLenPdf::51                       0                       # What write queue length does an incoming req see
system.mem_ctrl.wrQLenPdf::52                       0                       # What write queue length does an incoming req see
system.mem_ctrl.wrQLenPdf::53                       0                       # What write queue length does an incoming req see
system.mem_ctrl.wrQLenPdf::54                       0                       # What write queue length does an incoming req see
system.mem_ctrl.wrQLenPdf::55                       0                       # What write queue length does an incoming req see
system.mem_ctrl.wrQLenPdf::56                       0                       # What write queue length does an incoming req see
system.mem_ctrl.wrQLenPdf::57                       0                       # What write queue length does an incoming req see
system.mem_ctrl.wrQLenPdf::58                       0                       # What write queue length does an incoming req see
system.mem_ctrl.wrQLenPdf::59                       0                       # What write queue length does an incoming req see
system.mem_ctrl.wrQLenPdf::60                       0                       # What write queue length does an incoming req see
system.mem_ctrl.wrQLenPdf::61                       0                       # What write queue length does an incoming req see
system.mem_ctrl.wrQLenPdf::62                       0                       # What write queue length does an incoming req see
system.mem_ctrl.wrQLenPdf::63                       0                       # What write queue length does an incoming req see
system.mem_ctrl.bytesPerActivate::samples          251                       # Bytes accessed per row activation
system.mem_ctrl.bytesPerActivate::mean     403.633466                       # Bytes accessed per row activation
system.mem_ctrl.bytesPerActivate::gmean    261.206798                       # Bytes accessed per row activation
system.mem_ctrl.bytesPerActivate::stdev    339.076288                       # Bytes accessed per row activation
system.mem_ctrl.bytesPerActivate::0-127            60     23.90%     23.90% # Bytes accessed per row activation
system.mem_ctrl.bytesPerActivate::128-255           38     15.14%     39.04% # Bytes accessed per row activation
system.mem_ctrl.bytesPerActivate::256-383           44     17.53%     56.57% # Bytes accessed per row activation
system.mem_ctrl.bytesPerActivate::384-511           28     11.16%     67.73% # Bytes accessed per row activation
system.mem_ctrl.bytesPerActivate::512-639           16      6.37%     74.10% # Bytes accessed per row activation
system.mem_ctrl.bytesPerActivate::640-767           11      4.38%     78.49% # Bytes accessed per row activation
system.mem_ctrl.bytesPerActivate::768-895           10      3.98%     82.47% # Bytes accessed per row activation
system.mem_ctrl.bytesPerActivate::896-1023           12      4.78%     87.25% # Bytes accessed per row activation
system.mem_ctrl.bytesPerActivate::1024-1151           32     12.75%    100.00% # Bytes accessed per row activation
system.mem_ctrl.bytesPerActivate::total           251                       # Bytes accessed per row activation
system.mem_ctrl.rdPerTurnAround::samples           43                       # Reads before turning the bus around for writes
system.mem_ctrl.rdPerTurnAround::mean       19.883721                       # Reads before turning the bus around for writes
system.mem_ctrl.rdPerTurnAround::gmean      17.385205                       # Reads before turning the bus around for writes
system.mem_ctrl.rdPerTurnAround::stdev      21.919994                       # Reads before turning the bus around for writes
system.mem_ctrl.rdPerTurnAround::8-15              12     27.91%     27.91% # Reads before turning the bus around for writes
system.mem_ctrl.rdPerTurnAround::16-23             30     69.77%     97.67% # Reads before turning the bus around for writes
system.mem_ctrl.rdPerTurnAround::160-167            1      2.33%    100.00% # Reads before turning the bus around for writes
system.mem_ctrl.rdPerTurnAround::total             43                       # Reads before turning the bus around for writes
system.mem_ctrl.wrPerTurnAround::samples           43                       # Writes before turning the bus around for reads
system.mem_ctrl.wrPerTurnAround::mean       17.046512                       # Writes before turning the bus around for reads
system.mem_ctrl.wrPerTurnAround::gmean      17.006619                       # Writes before turning the bus around for reads
system.mem_ctrl.wrPerTurnAround::stdev       1.194302                       # Writes before turning the bus around for reads
system.mem_ctrl.wrPerTurnAround::16                22     51.16%     51.16% # Writes before turning the bus around for reads
system.mem_ctrl.wrPerTurnAround::17                 3      6.98%     58.14% # Writes before turning the bus around for reads
system.mem_ctrl.wrPerTurnAround::18                13     30.23%     88.37% # Writes before turning the bus around for reads
system.mem_ctrl.wrPerTurnAround::19                 4      9.30%     97.67% # Writes before turning the bus around for reads
system.mem_ctrl.wrPerTurnAround::20                 1      2.33%    100.00% # Writes before turning the bus around for reads
system.mem_ctrl.wrPerTurnAround::total             43                       # Writes before turning the bus around for reads
system.mem_ctrl.totQLat                      13410500                       # Total ticks spent queuing
system.mem_ctrl.totMemAccLat                 29723000                       # Total ticks spent from burst creation until serviced by the DRAM
system.mem_ctrl.totBusLat                     4350000                       # Total ticks spent in databus transfers
system.mem_ctrl.avgQLat                      15414.37                       # Average queueing delay per DRAM burst
system.mem_ctrl.avgBusLat                     5000.00                       # Average bus latency per DRAM burst
system.mem_ctrl.avgMemAccLat                 34164.37                       # Average memory access latency per DRAM burst
system.mem_ctrl.avgRdBW                        370.54                       # Average DRAM read bandwidth in MiByte/s
system.mem_ctrl.avgWrBW                        312.19                       # Average achieved write bandwidth in MiByte/s
system.mem_ctrl.avgRdBWSys                    1842.05                       # Average system read bandwidth in MiByte/s
system.mem_ctrl.avgWrBWSys                    1787.54                       # Average system write bandwidth in MiByte/s
system.mem_ctrl.peakBW                       12800.00                       # Theoretical peak bandwidth in MiByte/s
system.mem_ctrl.busUtil                          5.33                       # Data bus utilization in percentage
system.mem_ctrl.busUtilRead                      2.89                       # Data bus utilization in percentage for reads
system.mem_ctrl.busUtilWrite                     2.44                       # Data bus utilization in percentage for writes
system.mem_ctrl.avgRdQLen                        1.00                       # Average read queue length when enqueuing
system.mem_ctrl.avgWrQLen                       23.89                       # Average write queue length when enqueuing
system.mem_ctrl.readRowHits                       660                       # Number of row buffer hits during reads
system.mem_ctrl.writeRowHits                      685                       # Number of row buffer hits during writes
system.mem_ctrl.readRowHitRate                  75.86                       # Row buffer hit rate for reads
system.mem_ctrl.writeRowHitRate                 89.78                       # Row buffer hit rate for writes
system.mem_ctrl.avgGap                       17630.25                       # Average gap between requests
system.mem_ctrl.pageHitRate                     82.36                       # Row buffer hit rate, read and write combined
system.mem_ctrl_0.actEnergy                   1242360                       # Energy for activate commands per rank (pJ)
system.mem_ctrl_0.preEnergy                    648945                       # Energy for precharge commands per rank (pJ)
system.mem_ctrl_0.readEnergy                  3862740                       # Energy for read commands per rank (pJ)
system.mem_ctrl_0.writeEnergy                 2213280                       # Energy for write commands per rank (pJ)
system.mem_ctrl_0.refreshEnergy          11678160.000000                       # Energy for refresh commands per rank (pJ)
system.mem_ctrl_0.actBackEnergy              13773480                       # Energy for active background per rank (pJ)
system.mem_ctrl_0.preBackEnergy                239520                       # Energy for precharge background per rank (pJ)
system.mem_ctrl_0.actPowerDownEnergy         51533130                       # Energy for active power-down per rank (pJ)
system.mem_ctrl_0.prePowerDownEnergy          2468160                       # Energy for precharge power-down per rank (pJ)
system.mem_ctrl_0.selfRefreshEnergy                 0                       # Energy for self refresh per rank (pJ)
system.mem_ctrl_0.totalEnergy                87659775                       # Total energy per rank (pJ)
system.mem_ctrl_0.averagePower             583.358178                       # Core power per rank (mW)
system.mem_ctrl_0.totalIdleTime             119380250                       # Total Idle time Per DRAM Rank
system.mem_ctrl_0.memoryStateTime::IDLE         97000                       # Time in different power states
system.mem_ctrl_0.memoryStateTime::REF        4940000                       # Time in different power states
system.mem_ctrl_0.memoryStateTime::SREF             0                       # Time in different power states
system.mem_ctrl_0.memoryStateTime::PRE_PDN      6426000                       # Time in different power states
system.mem_ctrl_0.memoryStateTime::ACT       25798250                       # Time in different power states
system.mem_ctrl_0.memoryStateTime::ACT_PDN    113005750                       # Time in different power states
system.mem_ctrl_1.actEnergy                    599760                       # Energy for activate commands per rank (pJ)
system.mem_ctrl_1.preEnergy                    303600                       # Energy for precharge commands per rank (pJ)
system.mem_ctrl_1.readEnergy                  2349060                       # Energy for read commands per rank (pJ)
system.mem_ctrl_1.writeEnergy                 1612980                       # Energy for write commands per rank (pJ)
system.mem_ctrl_1.refreshEnergy          11678160.000000                       # Energy for refresh commands per rank (pJ)
system.mem_ctrl_1.actBackEnergy              13458840                       # Energy for active background per rank (pJ)
system.mem_ctrl_1.preBackEnergy                493440                       # Energy for precharge background per rank (pJ)
system.mem_ctrl_1.actPowerDownEnergy         43972650                       # Energy for active power-down per rank (pJ)
system.mem_ctrl_1.prePowerDownEnergy          7073760                       # Energy for precharge power-down per rank (pJ)
system.mem_ctrl_1.selfRefreshEnergy           1659840                       # Energy for self refresh per rank (pJ)
system.mem_ctrl_1.totalEnergy                83202090                       # Total energy per rank (pJ)
system.mem_ctrl_1.averagePower             553.693180                       # Core power per rank (mW)
system.mem_ctrl_1.totalIdleTime             119328750                       # Total Idle time Per DRAM Rank
system.mem_ctrl_1.memoryStateTime::IDLE        780000                       # Time in different power states
system.mem_ctrl_1.memoryStateTime::REF        4946000                       # Time in different power states
system.mem_ctrl_1.memoryStateTime::SREF       4615250                       # Time in different power states
system.mem_ctrl_1.memoryStateTime::PRE_PDN     18420500                       # Time in different power states
system.mem_ctrl_1.memoryStateTime::ACT       25084500                       # Time in different power states
system.mem_ctrl_1.memoryStateTime::ACT_PDN     96420750                       # Time in different power states
system.pwrStateResidencyTicks::UNDEFINED    150267000                       # Cumulative time (in ticks) in various power states
system.cache.pwrStateResidencyTicks::UNDEFINED    150267000                       # Cumulative time (in ticks) in various power states
system.cache.hits                                7373                       # Number of hits
system.cache.misses                              4325                       # Number of misses
system.cache.missLatency::samples                4325                       # Ticks for misses to the cache
system.cache.missLatency::mean           32039.075145                       # Ticks for misses to the cache
system.cache.missLatency::gmean          28526.231860                       # Ticks for misses to the cache
system.cache.missLatency::stdev          22199.355340                       # Ticks for misses to the cache
system.cache.missLatency::0-32767                3455     79.88%     79.88% # Ticks for misses to the cache
system.cache.missLatency::32768-65535             644     14.89%     94.77% # Ticks for misses to the cache
system.cache.missLatency::65536-98303             186      4.30%     99.08% # Ticks for misses to the cache
system.cache.missLatency::98304-131071              9      0.21%     99.28% # Ticks for misses to the cache
system.cache.missLatency::131072-163839            15      0.35%     99.63% # Ticks for misses to the cache
system.cache.missLatency::163840-196607             5      0.12%     99.75% # Ticks for misses to the cache
system.cache.missLatency::196608-229375             0      0.00%     99.75% # Ticks for misses to the cache
system.cache.missLatency::229376-262143             2      0.05%     99.79% # Ticks for misses to the cache
system.cache.missLatency::262144-294911             4      0.09%     99.88% # Ticks for misses to the cache
system.cache.missLatency::294912-327679             3      0.07%     99.95% # Ticks for misses to the cache
system.cache.missLatency::327680-360447             2      0.05%    100.00% # Ticks for misses to the cache
system.cache.missLatency::360448-393215             0      0.00%    100.00% # Ticks for misses to the cache
system.cache.missLatency::393216-425983             0      0.00%    100.00% # Ticks for misses to the cache
system.cache.missLatency::425984-458751             0      0.00%    100.00% # Ticks for misses to the cache
system.cache.missLatency::458752-491519             0      0.00%    100.00% # Ticks for misses to the cache
system.cache.missLatency::491520-524287             0      0.00%    100.00% # Ticks for misses to the cache
system.cache.missLatency::total                  4325                       # Ticks for misses to the cache
system.cache.hitRatio                        0.630279                       # The ratio of hits to the total accesses to the cache
system.cpu.dtb.fetch_hits                           0                       # ITB hits
system.cpu.dtb.fetch_misses                         0                       # ITB misses
system.cpu.dtb.fetch_acv                            0                       # ITB acv
system.cpu.dtb.fetch_accesses                       0                       # ITB accesses
system.cpu.dtb.read_hits                         1710                       # DTB read hits
system.cpu.dtb.read_misses                         10                       # DTB read misses
system.cpu.dtb.read_acv                             0                       # DTB read access violations
system.cpu.dtb.read_accesses                     1720                       # DTB read accesses
system.cpu.dtb.write_hits                        1209                       # DTB write hits
system.cpu.dtb.write_misses                         2                       # DTB write misses
system.cpu.dtb.write_acv                            0                       # DTB write access violations
system.cpu.dtb.write_accesses                    1211                       # DTB write accesses
system.cpu.dtb.data_hits                         2919                       # DTB hits
system.cpu.dtb.data_misses                         12                       # DTB misses
system.cpu.dtb.data_acv                             0                       # DTB access violations
system.cpu.dtb.data_accesses                     2931                       # DTB accesses
system.cpu.itb.fetch_hits                        8780                       # ITB hits
system.cpu.itb.fetch_misses                        19                       # ITB misses
system.cpu.itb.fetch_acv                            0                       # ITB acv
system.cpu.itb.fetch_accesses                    8799                       # ITB accesses
system.cpu.itb.read_hits                            0                       # DTB read hits
system.cpu.itb.read_misses                          0                       # DTB read misses
system.cpu.itb.read_acv                             0                       # DTB read access violations
system.cpu.itb.read_accesses                        0                       # DTB read accesses
system.cpu.itb.write_hits                           0                       # DTB write hits
system.cpu.itb.write_misses                         0                       # DTB write misses
system.cpu.itb.write_acv                            0                       # DTB write access violations
system.cpu.itb.write_accesses                       0                       # DTB write accesses
system.cpu.itb.data_hits                            0                       # DTB hits
system.cpu.itb.data_misses                          0                       # DTB misses
system.cpu.itb.data_acv                             0                       # DTB access violations
system.cpu.itb.data_accesses                        0                       # DTB accesses
system.cpu.workload.numSyscalls                    10                       # Number of system calls
system.cpu.pwrStateResidencyTicks::ON       150267000                       # Cumulative time (in ticks) in various power states
system.cpu.numCycles                           150267                       # number of cpu cycles simulated
system.cpu.numWorkItemsStarted                      0                       # number of work items this cpu started
system.cpu.numWorkItemsCompleted                    0                       # number of work items this cpu completed
system.cpu.committedInsts                        8767                       # Number of instructions committed
system.cpu.committedOps                          8767                       # Number of ops (including micro ops) committed
system.cpu.num_int_alu_accesses                  8667                       # Number of integer alu accesses
system.cpu.num_fp_alu_accesses                     16                       # Number of float alu accesses
system.cpu.num_vec_alu_accesses                     0                       # Number of vector alu accesses
system.cpu.num_func_calls                         251                       # number of times a function call or return occured
system.cpu.num_conditional_control_insts          903                       # number of instructions that are conditional controls
system.cpu.num_int_insts                         8667                       # number of integer instructions
system.cpu.num_fp_insts                            16                       # number of float instructions
system.cpu.num_vec_insts                            0                       # number of vector instructions
system.cpu.num_int_register_reads               11807                       # number of times the integer registers were read
system.cpu.num_int_register_writes               6404                       # number of times the integer registers were written
system.cpu.num_fp_register_reads                   14                       # number of times the floating registers were read
system.cpu.num_fp_register_writes                   2                       # number of times the floating registers were written
system.cpu.num_vec_register_reads                   0                       # number of times the vector registers were read
system.cpu.num_vec_register_writes                  0                       # number of times the vector registers were written
system.cpu.num_mem_refs                          2931                       # number of memory refs
system.cpu.num_load_insts                        1720                       # Number of load instructions
system.cpu.num_store_insts                       1211                       # Number of store instructions
system.cpu.num_idle_cycles                          0                       # Number of idle cycles
system.cpu.num_busy_cycles                     150267                       # Number of busy cycles
system.cpu.not_idle_fraction                        1                       # Percentage of non-idle cycles
system.cpu.idle_fraction                            0                       # Percentage of idle cycles
system.cpu.Branches                              1241                       # Number of branches fetched
system.cpu.op_class::No_OpClass                    32      0.36%      0.36% # Class of executed instruction
system.cpu.op_class::IntAlu                      5813     66.21%     66.58% # Class of executed instruction
system.cpu.op_class::IntMult                        1      0.01%     66.59% # Class of executed instruction
system.cpu.op_class::IntDiv                         0      0.00%     66.59% # Class of executed instruction
system.cpu.op_class::FloatAdd                       2      0.02%     66.61% # Class of executed instruction
system.cpu.op_class::FloatCmp                       0      0.00%     66.61% # Class of executed instruction
system.cpu.op_class::FloatCvt                       0      0.00%     66.61% # Class of executed instruction
system.cpu.op_class::FloatMult                      0      0.00%     66.61% # Class of executed instruction
system.cpu.op_class::FloatMultAcc                   0      0.00%     66.61% # Class of executed instruction
system.cpu.op_class::FloatDiv                       0      0.00%     66.61% # Class of executed instruction
system.cpu.op_class::FloatMisc                      0      0.00%     66.61% # Class of executed instruction
system.cpu.op_class::FloatSqrt                      0      0.00%     66.61% # Class of executed instruction
system.cpu.op_class::SimdAdd                        0      0.00%     66.61% # Class of executed instruction
system.cpu.op_class::SimdAddAcc                     0      0.00%     66.61% # Class of executed instruction
system.cpu.op_class::SimdAlu                        0      0.00%     66.61% # Class of executed instruction
system.cpu.op_class::SimdCmp                        0      0.00%     66.61% # Class of executed instruction
system.cpu.op_class::SimdCvt                        0      0.00%     66.61% # Class of executed instruction
system.cpu.op_class::SimdMisc                       0      0.00%     66.61% # Class of executed instruction
system.cpu.op_class::SimdMult                       0      0.00%     66.61% # Class of executed instruction
system.cpu.op_class::SimdMultAcc                    0      0.00%     66.61% # Class of executed instruction
system.cpu.op_class::SimdShift                      0      0.00%     66.61% # Class of executed instruction
system.cpu.op_class::SimdShiftAcc                   0      0.00%     66.61% # Class of executed instruction
system.cpu.op_class::SimdSqrt                       0      0.00%     66.61% # Class of executed instruction
system.cpu.op_class::SimdFloatAdd                   0      0.00%     66.61% # Class of executed instruction
system.cpu.op_class::SimdFloatAlu                   0      0.00%     66.61% # Class of executed instruction
system.cpu.op_class::SimdFloatCmp                   0      0.00%     66.61% # Class of executed instruction
system.cpu.op_class::SimdFloatCvt                   0      0.00%     66.61% # Class of executed instruction
system.cpu.op_class::SimdFloatDiv                   0      0.00%     66.61% # Class of executed instruction
system.cpu.op_class::SimdFloatMisc                  0      0.00%     66.61% # Class of executed instruction
system.cpu.op_class::SimdFloatMult                  0      0.00%     66.61% # Class of executed instruction
system.cpu.op_class::SimdFloatMultAcc               0      0.00%     66.61% # Class of executed instruction
system.cpu.op_class::SimdFloatSqrt                  0      0.00%     66.61% # Class of executed instruction
system.cpu.op_class::MemRead                     1719     19.58%     86.19% # Class of executed instruction
system.cpu.op_class::MemWrite                    1198     13.65%     99.84% # Class of executed instruction
system.cpu.op_class::FloatMemRead                   1      0.01%     99.85% # Class of executed instruction
system.cpu.op_class::FloatMemWrite                 13      0.15%    100.00% # Class of executed instruction
system.cpu.op_class::IprAccess                      0      0.00%    100.00% # Class of executed instruction
system.cpu.op_class::InstPrefetch                   0      0.00%    100.00% # Class of executed instruction
system.cpu.op_class::total                       8779                       # Class of executed instruction
system.membus.snoop_filter.tot_requests             0                       # Total number of requests made to the snoop filter.
system.membus.snoop_filter.hit_single_requests            0                       # Number of requests hitting in the snoop filter with a single holder of the requested data.
system.membus.snoop_filter.hit_multi_requests            0                       # Number of requests hitting in the snoop filter with multiple (>1) holders of the requested data.
system.membus.snoop_filter.tot_snoops               0                       # Total number of snoops made to the snoop filter.
system.membus.snoop_filter.hit_single_snoops            0                       # Number of snoops hitting in the snoop filter with a single holder of the requested data.
system.membus.snoop_filter.hit_multi_snoops            0                       # Number of snoops hitting in the snoop filter with multiple (>1) holders of the requested data.
system.membus.pwrStateResidencyTicks::UNDEFINED    150267000                       # Cumulative time (in ticks) in various power states
system.membus.trans_dist::ReadReq                4325                       # Transaction distribution
system.membus.trans_dist::ReadResp               4325                       # Transaction distribution
system.membus.trans_dist::WritebackDirty         4197                       # Transaction distribution
system.membus.pkt_count_system.cache.mem_side::system.mem_ctrl.port        12847                       # Packet count per connected master and slave (bytes)
system.membus.pkt_count::total                  12847                       # Packet count per connected master and slave (bytes)
system.membus.pkt_size_system.cache.mem_side::system.mem_ctrl.port       545408                       # Cumulative packet size per connected master and slave (bytes)
system.membus.pkt_size::total                  545408                       # Cumulative packet size per connected master and slave (bytes)
system.membus.snoops                                0                       # Total snoops (count)
system.membus.snoopTraffic                          0                       # Total snoop traffic (bytes)
system.membus.snoop_fanout::samples              4325                       # Request fanout histogram
system.membus.snoop_fanout::mean                    0                       # Request fanout histogram
system.membus.snoop_fanout::stdev                   0                       # Request fanout histogram
system.membus.snoop_fanout::underflows              0      0.00%      0.00% # Request fanout histogram
system.membus.snoop_fanout::0                    4325    100.00%    100.00% # Request fanout histogram
system.membus.snoop_fanout::overflows               0      0.00%    100.00% # Request fanout histogram
system.membus.snoop_fanout::min_value               0                       # Request fanout histogram
system.membus.snoop_fanout::max_value               0                       # Request fanout histogram
system.membus.snoop_fanout::total                4325                       # Request fanout histogram
system.membus.reqLayer0.occupancy            25310000                       # Layer occupancy (ticks)
system.membus.reqLayer0.utilization              16.8                       # Layer utilization (%)
system.membus.respLayer0.occupancy           21906000                       # Layer occupancy (ticks)
system.membus.respLayer0.utilization             14.6                       # Layer utilization (%)

---------- End Simulation Statistics   ----------
