
---------- Begin Simulation Statistics ----------
sim_seconds                                  0.000110                       # Number of seconds simulated
sim_ticks                                   110358000                       # Number of ticks simulated
final_tick                                  110358000                       # Number of ticks from beginning of simulation (restored from checkpoints and never reset)
sim_freq                                 1000000000000                       # Frequency of simulated ticks
host_inst_rate                                 334631                       # Simulator instruction rate (inst/s)
host_op_rate                                   334503                       # Simulator op (including micro ops) rate (op/s)
host_tick_rate                             4209085015                       # Simulator tick rate (ticks/s)
host_mem_usage                                6697108                       # Number of bytes of host memory used
host_seconds                                     0.03                       # Real time elapsed on the host
sim_insts                                        8767                       # Number of instructions simulated
sim_ops                                          8767                       # Number of ops (including micro ops) simulated
system.clk_domain.voltage_domain.voltage            1                       # Voltage in Volts
system.clk_domain.clock                          1000                       # Clock period in ticks
system.mem_ctrl.pwrStateResidencyTicks::UNDEFINED    110358000                       # Cumulative time (in ticks) in various power states
system.mem_ctrl.bytes_read::cpu.inst            96064                       # Number of bytes read from this memory
system.mem_ctrl.bytes_read::cpu.data            80192                       # Number of bytes read from this memory
system.mem_ctrl.bytes_read::total              176256                       # Number of bytes read from this memory
system.mem_ctrl.bytes_inst_read::cpu.inst        96064                       # Number of instructions bytes read from this memory
system.mem_ctrl.bytes_inst_read::total          96064                       # Number of instructions bytes read from this memory
system.mem_ctrl.bytes_written::writebacks       168064                       # Number of bytes written to this memory
system.mem_ctrl.bytes_written::total           168064                       # Number of bytes written to this memory
system.mem_ctrl.num_reads::cpu.inst              1501                       # Number of read requests responded to by this memory
system.mem_ctrl.num_reads::cpu.data              1253                       # Number of read requests responded to by this memory
system.mem_ctrl.num_reads::total                 2754                       # Number of read requests responded to by this memory
system.mem_ctrl.num_writes::writebacks           2626                       # Number of write requests responded to by this memory
system.mem_ctrl.num_writes::total                2626                       # Number of write requests responded to by this memory
system.mem_ctrl.bw_read::cpu.inst           870476087                       # Total read bandwidth from this memory (bytes/s)
system.mem_ctrl.bw_read::cpu.data           726653256                       # Total read bandwidth from this memory (bytes/s)
system.mem_ctrl.bw_read::total             1597129343                       # Total read bandwidth from this memory (bytes/s)
system.mem_ctrl.bw_inst_read::cpu.inst      870476087                       # Instruction read bandwidth from this memory (bytes/s)
system.mem_ctrl.bw_inst_read::total         870476087                       # Instruction read bandwidth from this memory (bytes/s)
system.mem_ctrl.bw_write::writebacks       1522898204                       # Write bandwidth from this memory (bytes/s)
system.mem_ctrl.bw_write::total            1522898204                       # Write bandwidth from this memory (bytes/s)
system.mem_ctrl.bw_total::writebacks       1522898204                       # Total bandwidth to/from this memory (bytes/s)
system.mem_ctrl.bw_total::cpu.inst          870476087                       # Total bandwidth to/from this memory (bytes/s)
system.mem_ctrl.bw_total::cpu.data          726653256                       # Total bandwidth to/from this memory (bytes/s)
system.mem_ctrl.bw_total::total            3120027547                       # Total bandwidth to/from this memory (bytes/s)
system.mem_ctrl.readReqs                         2754                       # Number of read requests accepted
system.mem_ctrl.writeReqs                        2626                       # Number of write requests accepted
system.mem_ctrl.readBursts                       2754                       # Number of DRAM read bursts, including those serviced by the write queue
system.mem_ctrl.writeBursts                      2626                       # Number of DRAM write bursts, including those merged in the write queue
system.mem_ctrl.bytesReadDRAM                   52352                       # Total number of bytes read from DRAM
system.mem_ctrl.bytesReadWrQ                   123904                       # Total number of bytes read from write queue
system.mem_ctrl.bytesWritten                    43968                       # Total number of bytes written to DRAM
system.mem_ctrl.bytesReadSys                   176256                       # Total read bytes from the system interface side
system.mem_ctrl.bytesWrittenSys                168064                       # Total written bytes from the system interface side
system.mem_ctrl.servicedByWrQ                    1936                       # Number of DRAM read bursts serviced by the write queue
system.mem_ctrl.mergedWrBursts                   1908                       # Number of DRAM write bursts merged with an existing one
system.mem_ctrl.neitherReadNorWriteReqs             0                       # Number of requests that are neither read nor write
system.mem_ctrl.perBankRdBursts::0                 81                       # Per bank write bursts
system.mem_ctrl.perBankRdBursts::1                 21                       # Per bank write bursts
system.mem_ctrl.perBankRdBursts::2                144                       # Per bank write bursts
system.mem_ctrl.perBankRdBursts::3                120                       # Per bank write bursts
system.mem_ctrl.perBankRdBursts::4                 85                       # Per bank write bursts
system.mem_ctrl.perBankRdBursts::5                 30                       # Per bank write bursts
system.mem_ctrl.perBankRdBursts::6                 25                       # Per bank write bursts
system.mem_ctrl.perBankRdBursts::7                 43                       # Per bank write bursts
system.mem_ctrl.perBankRdBursts::8                  3                       # Per bank write bursts
system.mem_ctrl.perBankRdBursts::9                 85                       # Per bank write bursts
system.mem_ctrl.perBankRdBursts::10                 7                       # Per bank write bursts
system.mem_ctrl.perBankRdBursts::11                23                       # Per bank write bursts
system.mem_ctrl.perBankRdBursts::12                 4                       # Per bank write bursts
system.mem_ctrl.perBankRdBursts::13                33                       # Per bank write bursts
system.mem_ctrl.perBankRdBursts::14                71                       # Per bank write bursts
system.mem_ctrl.perBankRdBursts::15                43                       # Per bank write bursts
system.mem_ctrl.perBankWrBursts::0                 63                       # Per bank write bursts
system.mem_ctrl.perBankWrBursts::1                 15                       # Per bank write bursts
system.mem_ctrl.perBankWrBursts::2                119                       # Per bank write bursts
system.mem_ctrl.perBankWrBursts::3                 98                       # Per bank write bursts
system.mem_ctrl.perBankWrBursts::4                 68                       # Per bank write bursts
system.mem_ctrl.perBankWrBursts::5                 23                       # Per bank write bursts
system.mem_ctrl.perBankWrBursts::6                 24                       # Per bank write bursts
system.mem_ctrl.perBankWrBursts::7                 40                       # Per bank write bursts
system.mem_ctrl.perBankWrBursts::8                  2                       # Per bank write bursts
system.mem_ctrl.perBankWrBursts::9                 84                       # Per bank write bursts
system.mem_ctrl.perBankWrBursts::10                 6                       # Per bank write bursts
system.mem_ctrl.perBankWrBursts::11                25                       # Per bank write bursts
system.mem_ctrl.perBankWrBursts::12                 4                       # Per bank write bursts
system.mem_ctrl.perBankWrBursts::13                27                       # Per bank write bursts
system.mem_ctrl.perBankWrBursts::14                52                       # Per bank write bursts
system.mem_ctrl.perBankWrBursts::15                37                       # Per bank write bursts
system.mem_ctrl.numRdRetry                          0                       # Number of times read queue was full causing retry
system.mem_ctrl.numWrRetry                          0                       # Number of times write queue was full causing retry
system.mem_ctrl.totGap                      110345000                       # Total gap between requests
system.mem_ctrl.readPktSize::0                      0                       # Read request sizes (log2)
system.mem_ctrl.readPktSize::1                      0                       # Read request sizes (log2)
system.mem_ctrl.readPktSize::2                      0                       # Read request sizes (log2)
system.mem_ctrl.readPktSize::3                      0                       # Read request sizes (log2)
system.mem_ctrl.readPktSize::4                      0                       # Read request sizes (log2)
system.mem_ctrl.readPktSize::5                      0                       # Read request sizes (log2)
system.mem_ctrl.readPktSize::6                   2754                       # Read request sizes (log2)
system.mem_ctrl.writePktSize::0                     0                       # Write request sizes (log2)
system.mem_ctrl.writePktSize::1                     0                       # Write request sizes (log2)
system.mem_ctrl.writePktSize::2                     0                       # Write request sizes (log2)
system.mem_ctrl.writePktSize::3                     0                       # Write request sizes (log2)
system.mem_ctrl.writePktSize::4                     0                       # Write request sizes (log2)
system.mem_ctrl.writePktSize::5                     0                       # Write request sizes (log2)
system.mem_ctrl.writePktSize::6                  2626                       # Write request sizes (log2)
system.mem_ctrl.rdQLenPdf::0                      818                       # What read queue length does an incoming req see
system.mem_ctrl.rdQLenPdf::1                        0                       # What read queue length does an incoming req see
system.mem_ctrl.rdQLenPdf::2                        0                       # What read queue length does an incoming req see
system.mem_ctrl.rdQLenPdf::3                        0                       # What read queue length does an incoming req see
system.mem_ctrl.rdQLenPdf::4                        0                       # What read queue length does an incoming req see
system.mem_ctrl.rdQLenPdf::5                        0                       # What read queue length does an incoming req see
system.mem_ctrl.rdQLenPdf::6                        0                       # What read queue length does an incoming req see
system.mem_ctrl.rdQLenPdf::7                        0                       # What read queue length does an incoming req see
system.mem_ctrl.rdQLenPdf::8                        0                       # What read queue length does an incoming req see
system.mem_ctrl.rdQLenPdf::9                        0                       # What read queue length does an incoming req see
system.mem_ctrl.rdQLenPdf::10                       0                       # What read queue length does an incoming req see
system.mem_ctrl.rdQLenPdf::11                       0                       # What read queue length does an incoming req see
system.mem_ctrl.rdQLenPdf::12                       0                       # What read queue length does an incoming req see
system.mem_ctrl.rdQLenPdf::13                       0                       # What read queue length does an incoming req see
system.mem_ctrl.rdQLenPdf::14                       0                       # What read queue length does an incoming req see
system.mem_ctrl.rdQLenPdf::15                       0                       # What read queue length does an incoming req see
system.mem_ctrl.rdQLenPdf::16                       0                       # What read queue length does an incoming req see
system.mem_ctrl.rdQLenPdf::17                       0                       # What read queue length does an incoming req see
system.mem_ctrl.rdQLenPdf::18                       0                       # What read queue length does an incoming req see
system.mem_ctrl.rdQLenPdf::19                       0                       # What read queue length does an incoming req see
system.mem_ctrl.rdQLenPdf::20                       0                       # What read queue length does an incoming req see
system.mem_ctrl.rdQLenPdf::21                       0                       # What read queue length does an incoming req see
system.mem_ctrl.rdQLenPdf::22                       0                       # What read queue length does an incoming req see
system.mem_ctrl.rdQLenPdf::23                       0                       # What read queue length does an incoming req see
system.mem_ctrl.rdQLenPdf::24                       0                       # What read queue length does an incoming req see
system.mem_ctrl.rdQLenPdf::25                       0                       # What read queue length does an incoming req see
system.mem_ctrl.rdQLenPdf::26                       0                       # What read queue length does an incoming req see
system.mem_ctrl.rdQLenPdf::27                       0                       # What read queue length does an incoming req see
system.mem_ctrl.rdQLenPdf::28                       0                       # What read queue length does an incoming req see
system.mem_ctrl.rdQLenPdf::29                       0                       # What read queue length does an incoming req see
system.mem_ctrl.rdQLenPdf::30                       0                       # What read queue length does an incoming req see
system.mem_ctrl.rdQLenPdf::31                       0                       # What read queue length does an incoming req see
system.mem_ctrl.wrQLenPdf::0                        1                       # What write queue length does an incoming req see
system.mem_ctrl.wrQLenPdf::1                        1                       # What write queue length does an incoming req see
system.mem_ctrl.wrQLenPdf::2                        1                       # What write queue length does an incoming req see
system.mem_ctrl.wrQLenPdf::3                        1                       # What write queue length does an incoming req see
system.mem_ctrl.wrQLenPdf::4                        1                       # What write queue length does an incoming req see
system.mem_ctrl.wrQLenPdf::5                        1                       # What write queue length does an incoming req see
system.mem_ctrl.wrQLenPdf::6                        1                       # What write queue length does an incoming req see
system.mem_ctrl.wrQLenPdf::7                        1                       # What write queue length does an incoming req see
system.mem_ctrl.wrQLenPdf::8                        1                       # What write queue length does an incoming req see
system.mem_ctrl.wrQLenPdf::9                        1                       # What write queue length does an incoming req see
system.mem_ctrl.wrQLenPdf::10                       1                       # What write queue length does an incoming req see
system.mem_ctrl.wrQLenPdf::11                       1                       # What write queue length does an incoming req see
system.mem_ctrl.wrQLenPdf::12                       1                       # What write queue length does an incoming req see
system.mem_ctrl.wrQLenPdf::13                       1                       # What write queue length does an incoming req see
system.mem_ctrl.wrQLenPdf::14                       1                       # What write queue length does an incoming req see
system.mem_ctrl.wrQLenPdf::15                       9                       # What write queue length does an incoming req see
system.mem_ctrl.wrQLenPdf::16                      11                       # What write queue length does an incoming req see
system.mem_ctrl.wrQLenPdf::17                      39                       # What write queue length does an incoming req see
system.mem_ctrl.wrQLenPdf::18                      45                       # What write queue length does an incoming req see
system.mem_ctrl.wrQLenPdf::19                      46                       # What write queue length does an incoming req see
system.mem_ctrl.wrQLenPdf::20                      42                       # What write queue length does an incoming req see
system.mem_ctrl.wrQLenPdf::21                      42                       # What write queue length does an incoming req see
system.mem_ctrl.wrQLenPdf::22                      42                       # What write queue length does an incoming req see
system.mem_ctrl.wrQLenPdf::23                      48                       # What write queue length does an incoming req see
system.mem_ctrl.wrQLenPdf::24                      44                       # What write queue length does an incoming req see
system.mem_ctrl.wrQLenPdf::25                      43                       # What write queue length does an incoming req see
system.mem_ctrl.wrQLenPdf::26                      42                       # What write queue length does an incoming req see
system.mem_ctrl.wrQLenPdf::27                      42                       # What write queue length does an incoming req see
system.mem_ctrl.wrQLenPdf::28                      42                       # What write queue length does an incoming req see
system.mem_ctrl.wrQLenPdf::29                      42                       # What write queue length does an incoming req see
system.mem_ctrl.wrQLenPdf::30                      42                       # What write queue length does an incoming req see
system.mem_ctrl.wrQLenPdf::31                      41                       # What write queue length does an incoming req see
system.mem_ctrl.wrQLenPdf::32                      41                       # What write queue length does an incoming req see
system.mem_ctrl.wrQLenPdf::33                       0                       # What write queue length does an incoming req see
system.mem_ctrl.wrQLenPdf::34                       0                       # What write queue length does an incoming req see
system.mem_ctrl.wrQLenPdf::35                       0                       # What write queue length does an incoming req see
system.mem_ctrl.wrQLenPdf::36                       0                       # What write queue length does an incoming req see
system.mem_ctrl.wrQLenPdf::37                       0                       # What write queue length does an incoming req see
system.mem_ctrl.wrQLenPdf::38                       0                       # What write queue length does an incoming req see
system.mem_ctrl.wrQLenPdf::39                       0                       # What write queue length does an incoming req see
system.mem_ctrl.wrQLenPdf::40                       0                       # What write queue length does an incoming req see
system.mem_ctrl.wrQLenPdf::41                       0                       # What write queue length does an incoming req see
system.mem_ctrl.wrQLenPdf::42                       0                       # What write queue length does an incoming req see
system.mem_ctrl.wrQLenPdf::43                       0                       # What write queue length does an incoming req see
system.mem_ctrl.wrQLenPdf::44                       0                       # What write queue length does an incoming req see
system.mem_ctrl.wrQLenPdf::45                       0                       # What write queue length does an incoming req see
system.mem_ctrl.wrQLenPdf::46                       0                       # What write queue length does an incoming req see
system.mem_ctrl.wrQLenPdf::47                       0                       # What write queue length does an incoming req see
system.mem_ctrl.wrQLenPdf::48                       0                       # What write queue length does an incoming req see
system.mem_ctrl.wrQLenPdf::49                       0                       # What write queue length does an incoming req see
system.mem_ctrl.wrQLenPdf::50                       0                       # What write queue length does an incoming req see
system.mem_ctrl.wrQLenPdf::51                       0                       # What write queue length does an incoming req see
system.mem_ctrl.wrQLenPdf::52                       0                       # What write queue length does an incoming req see
system.mem_ctrl.wrQLenPdf::53                       0                       # What write queue length does an incoming req see
system.mem_ctrl.wrQLenPdf::54                       0                       # What write queue length does an incoming req see
system.mem_ctrl.wrQLenPdf::55                       0                       # What write queue length does an incoming req see
system.mem_ctrl.wrQLenPdf::56                       0                       # What write queue length does an incoming req see
system.mem_ctrl.wrQLenPdf::57                       0                       # What write queue length does an incoming req see
system.mem_ctrl.wrQLenPdf::58                       0                       # What write queue length does an incoming req see
system.mem_ctrl.wrQLenPdf::59                       0                       # What write queue length does an incoming req see
system.mem_ctrl.wrQLenPdf::60                       0                       # What write queue length does an incoming req see
system.mem_ctrl.wrQLenPdf::61                       0                       # What write queue length does an incoming req see
system.mem_ctrl.wrQLenPdf::62                       0                       # What write queue length does an incoming req see
system.mem_ctrl.wrQLenPdf::63                       0                       # What write queue length does an incoming req see
system.mem_ctrl.bytesPerActivate::samples          268                       # Bytes accessed per row activation
system.mem_ctrl.bytesPerActivate::mean     358.447761                       # Bytes accessed per row activation
system.mem_ctrl.bytesPerActivate::gmean    232.659859                       # Bytes accessed per row activation
system.mem_ctrl.bytesPerActivate::stdev    322.846482                       # Bytes accessed per row activation
system.mem_ctrl.bytesPerActivate::0-127            61     22.76%     22.76% # Bytes accessed per row activation
system.mem_ctrl.bytesPerActivate::128-255           74     27.61%     50.37% # Bytes accessed per row activation
system.mem_ctrl.bytesPerActivate::256-383           33     12.31%     62.69% # Bytes accessed per row activation
system.mem_ctrl.bytesPerActivate::384-511           29     10.82%     73.51% # Bytes accessed per row activation
system.mem_ctrl.bytesPerActivate::512-639           14      5.22%     78.73% # Bytes accessed per row activation
system.mem_ctrl.bytesPerActivate::640-767            6      2.24%     80.97% # Bytes accessed per row activation
system.mem_ctrl.bytesPerActivate::768-895           16      5.97%     86.94% # Bytes accessed per row activation
system.mem_ctrl.bytesPerActivate::896-1023            7      2.61%     89.55% # Bytes accessed per row activation
system.mem_ctrl.bytesPerActivate::1024-1151           28     10.45%    100.00% # Bytes accessed per row activation
system.mem_ctrl.bytesPerActivate::total           268                       # Bytes accessed per row activation
system.mem_ctrl.rdPerTurnAround::samples           41                       # Reads before turning the bus around for writes
system.mem_ctrl.rdPerTurnAround::mean       19.585366                       # Reads before turning the bus around for writes
system.mem_ctrl.rdPerTurnAround::gmean      16.943649                       # Reads before turning the bus around for writes
system.mem_ctrl.rdPerTurnAround::stdev      22.661615                       # Reads before turning the bus around for writes
system.mem_ctrl.rdPerTurnAround::8-15              11     26.83%     26.83% # Reads before turning the bus around for writes
system.mem_ctrl.rdPerTurnAround::16-23             29     70.73%     97.56% # Reads before turning the bus around for writes
system.mem_ctrl.rdPerTurnAround::160-167            1      2.44%    100.00% # Reads before turning the bus around for writes
system.mem_ctrl.rdPerTurnAround::total             41                       # Reads before turning the bus around for writes
system.mem_ctrl.wrPerTurnAround::samples           41                       # Writes before turning the bus around for reads
system.mem_ctrl.wrPerTurnAround::mean       16.756098                       # Writes before turning the bus around for reads
system.mem_ctrl.wrPerTurnAround::gmean      16.708969                       # Writes before turning the bus around for reads
system.mem_ctrl.wrPerTurnAround::stdev       1.318721                       # Writes before turning the bus around for reads
system.mem_ctrl.wrPerTurnAround::16                29     70.73%     70.73% # Writes before turning the bus around for reads
system.mem_ctrl.wrPerTurnAround::17                 2      4.88%     75.61% # Writes before turning the bus around for reads
system.mem_ctrl.wrPerTurnAround::18                 3      7.32%     82.93% # Writes before turning the bus around for reads
system.mem_ctrl.wrPerTurnAround::19                 6     14.63%     97.56% # Writes before turning the bus around for reads
system.mem_ctrl.wrPerTurnAround::21                 1      2.44%    100.00% # Writes before turning the bus around for reads
system.mem_ctrl.wrPerTurnAround::total             41                       # Writes before turning the bus around for reads
system.mem_ctrl.totQLat                      13063750                       # Total ticks spent queuing
system.mem_ctrl.totMemAccLat                 28401250                       # Total ticks spent from burst creation until serviced by the DRAM
system.mem_ctrl.totBusLat                     4090000                       # Total ticks spent in databus transfers
system.mem_ctrl.avgQLat                      15970.35                       # Average queueing delay per DRAM burst
system.mem_ctrl.avgBusLat                     5000.00                       # Average bus latency per DRAM burst
system.mem_ctrl.avgMemAccLat                 34720.35                       # Average memory access latency per DRAM burst
system.mem_ctrl.avgRdBW                        474.38                       # Average DRAM read bandwidth in MiByte/s
system.mem_ctrl.avgWrBW                        398.41                       # Average achieved write bandwidth in MiByte/s
system.mem_ctrl.avgRdBWSys                    1597.13                       # Average system read bandwidth in MiByte/s
system.mem_ctrl.avgWrBWSys                    1522.90                       # Average system write bandwidth in MiByte/s
system.mem_ctrl.peakBW                       12800.00                       # Theoretical peak bandwidth in MiByte/s
system.mem_ctrl.busUtil                          6.82                       # Data bus utilization in percentage
system.mem_ctrl.busUtilRead                      3.71                       # Data bus utilization in percentage for reads
system.mem_ctrl.busUtilWrite                     3.11                       # Data bus utilization in percentage for writes
system.mem_ctrl.avgRdQLen                        1.00                       # Average read queue length when enqueuing
system.mem_ctrl.avgWrQLen                       23.53                       # Average write queue length when enqueuing
system.mem_ctrl.readRowHits                       617                       # Number of row buffer hits during reads
system.mem_ctrl.writeRowHits                      617                       # Number of row buffer hits during writes
system.mem_ctrl.readRowHitRate                  75.43                       # Row buffer hit rate for reads
system.mem_ctrl.writeRowHitRate                 85.93                       # Row buffer hit rate for writes
system.mem_ctrl.avgGap                       20510.22                       # Average gap between requests
system.mem_ctrl.pageHitRate                     80.34                       # Row buffer hit rate, read and write combined
system.mem_ctrl_0.actEnergy                   1378020                       # Energy for activate commands per rank (pJ)
system.mem_ctrl_0.preEnergy                    728640                       # Energy for precharge commands per rank (pJ)
system.mem_ctrl_0.readEnergy                  3919860                       # Energy for read commands per rank (pJ)
system.mem_ctrl_0.writeEnergy                 2349000                       # Energy for write commands per rank (pJ)
system.mem_ctrl_0.refreshEnergy          8604960.000000                       # Energy for refresh commands per rank (pJ)
system.mem_ctrl_0.actBackEnergy              14492250                       # Energy for active background per rank (pJ)
system.mem_ctrl_0.preBackEnergy                189600                       # Energy for precharge background per rank (pJ)
system.mem_ctrl_0.actPowerDownEnergy         32833140                       # Energy for active power-down per rank (pJ)
system.mem_ctrl_0.prePowerDownEnergy          2335200                       # Energy for precharge power-down per rank (pJ)
system.mem_ctrl_0.selfRefreshEnergy                 0                       # Energy for self refresh per rank (pJ)
system.mem_ctrl_0.totalEnergy                66830670                       # Total energy per rank (pJ)
system.mem_ctrl_0.averagePower             605.576540                       # Core power per rank (mW)
system.mem_ctrl_0.totalIdleTime              78039250                       # Total Idle time Per DRAM Rank
system.mem_ctrl_0.memoryStateTime::IDLE         73000                       # Time in different power states
system.mem_ctrl_0.memoryStateTime::REF        3640000                       # Time in different power states
system.mem_ctrl_0.memoryStateTime::SREF             0                       # Time in different power states
system.mem_ctrl_0.memoryStateTime::PRE_PDN      6078250                       # Time in different power states
system.mem_ctrl_0.memoryStateTime::ACT       28563250                       # Time in different power states
system.mem_ctrl_0.memoryStateTime::ACT_PDN     72003500                       # Time in different power states
system.mem_ctrl_1.actEnergy                    556920                       # Energy for activate commands per rank (pJ)
system.mem_ctrl_1.preEnergy                    288420                       # Energy for precharge commands per rank (pJ)
system.mem_ctrl_1.readEnergy                  1920660                       # Energy for read commands per rank (pJ)
system.mem_ctrl_1.writeEnergy                 1237140                       # Energy for write commands per rank (pJ)
system.mem_ctrl_1.refreshEnergy          8604960.000000                       # Energy for refresh commands per rank (pJ)
system.mem_ctrl_1.actBackEnergy               9681450                       # Energy for active background per rank (pJ)
system.mem_ctrl_1.preBackEnergy                342240                       # Energy for precharge background per rank (pJ)
system.mem_ctrl_1.actPowerDownEnergy         36869880                       # Energy for active power-down per rank (pJ)
system.mem_ctrl_1.prePowerDownEnergy          2834400                       # Energy for precharge power-down per rank (pJ)
system.mem_ctrl_1.selfRefreshEnergy                 0                       # Energy for self refresh per rank (pJ)
system.mem_ctrl_1.totalEnergy                62336070                       # Total energy per rank (pJ)
system.mem_ctrl_1.averagePower             564.849366                       # Core power per rank (mW)
system.mem_ctrl_1.totalIdleTime              88107250                       # Total Idle time Per DRAM Rank
system.mem_ctrl_1.memoryStateTime::IDLE        498000                       # Time in different power states
system.mem_ctrl_1.memoryStateTime::REF        3640000                       # Time in different power states
system.mem_ctrl_1.memoryStateTime::SREF             0                       # Time in different power states
system.mem_ctrl_1.memoryStateTime::PRE_PDN      7380750                       # Time in different power states
system.mem_ctrl_1.memoryStateTime::ACT       17985000                       # Time in different power states
system.mem_ctrl_1.memoryStateTime::ACT_PDN     80854250                       # Time in different power states
system.pwrStateResidencyTicks::UNDEFINED    110358000                       # Cumulative time (in ticks) in various power states
system.cache.pwrStateResidencyTicks::UNDEFINED    110358000                       # Cumulative time (in ticks) in various power states
system.cache.hits                                8944                       # Number of hits
system.cache.misses                              2754                       # Number of misses
system.cache.missLatency::samples                2754                       # Ticks for misses to the cache
system.cache.missLatency::mean           35824.255628                       # Ticks for misses to the cache
system.cache.missLatency::gmean          30848.546502                       # Ticks for misses to the cache
system.cache.missLatency::stdev          26870.077555                       # Ticks for misses to the cache
system.cache.missLatency::0-32767                1936     70.30%     70.30% # Ticks for misses to the cache
system.cache.missLatency::32768-65535             610     22.15%     92.45% # Ticks for misses to the cache
system.cache.missLatency::65536-98303             166      6.03%     98.47% # Ticks for misses to the cache
system.cache.missLatency::98304-131071              9      0.33%     98.80% # Ticks for misses to the cache
system.cache.missLatency::131072-163839            18      0.65%     99.46% # Ticks for misses to the cache
system.cache.missLatency::163840-196607             5      0.18%     99.64% # Ticks for misses to the cache
system.cache.missLatency::196608-229375             1      0.04%     99.67% # Ticks for misses to the cache
system.cache.missLatency::229376-262143             1      0.04%     99.71% # Ticks for misses to the cache
system.cache.missLatency::262144-294911             2      0.07%     99.78% # Ticks for misses to the cache
system.cache.missLatency::294912-327679             2      0.07%     99.85% # Ticks for misses to the cache
system.cache.missLatency::327680-360447             3      0.11%     99.96% # Ticks for misses to the cache
system.cache.missLatency::360448-393215             0      0.00%     99.96% # Ticks for misses to the cache
system.cache.missLatency::393216-425983             0      0.00%     99.96% # Ticks for misses to the cache
system.cache.missLatency::425984-458751             0      0.00%     99.96% # Ticks for misses to the cache
system.cache.missLatency::458752-491519             1      0.04%    100.00% # Ticks for misses to the cache
system.cache.missLatency::491520-524287             0      0.00%    100.00% # Ticks for misses to the cache
system.cache.missLatency::total                  2754                       # Ticks for misses to the cache
system.cache.hitRatio                        0.764575                       # The ratio of hits to the total accesses to the cache
system.cpu.dtb.fetch_hits                           0                       # ITB hits
system.cpu.dtb.fetch_misses                         0                       # ITB misses
system.cpu.dtb.fetch_acv                            0                       # ITB acv
system.cpu.dtb.fetch_accesses                       0                       # ITB accesses
system.cpu.dtb.read_hits                         1710                       # DTB read hits
system.cpu.dtb.read_misses                         10                       # DTB read misses
system.cpu.dtb.read_acv                             0                       # DTB read access violations
system.cpu.dtb.read_accesses                     1720                       # DTB read accesses
system.cpu.dtb.write_hits                        1209                       # DTB write hits
system.cpu.dtb.write_misses                         2                       # DTB write misses
system.cpu.dtb.write_acv                            0                       # DTB write access violations
system.cpu.dtb.write_accesses                    1211                       # DTB write accesses
system.cpu.dtb.data_hits                         2919                       # DTB hits
system.cpu.dtb.data_misses                         12                       # DTB misses
system.cpu.dtb.data_acv                             0                       # DTB access violations
system.cpu.dtb.data_accesses                     2931                       # DTB accesses
system.cpu.itb.fetch_hits                        8780                       # ITB hits
system.cpu.itb.fetch_misses                        19                       # ITB misses
system.cpu.itb.fetch_acv                            0                       # ITB acv
system.cpu.itb.fetch_accesses                    8799                       # ITB accesses
system.cpu.itb.read_hits                            0                       # DTB read hits
system.cpu.itb.read_misses                          0                       # DTB read misses
system.cpu.itb.read_acv                             0                       # DTB read access violations
system.cpu.itb.read_accesses                        0                       # DTB read accesses
system.cpu.itb.write_hits                           0                       # DTB write hits
system.cpu.itb.write_misses                         0                       # DTB write misses
system.cpu.itb.write_acv                            0                       # DTB write access violations
system.cpu.itb.write_accesses                       0                       # DTB write accesses
system.cpu.itb.data_hits                            0                       # DTB hits
system.cpu.itb.data_misses                          0                       # DTB misses
system.cpu.itb.data_acv                             0                       # DTB access violations
system.cpu.itb.data_accesses                        0                       # DTB accesses
system.cpu.workload.numSyscalls                    10                       # Number of system calls
system.cpu.pwrStateResidencyTicks::ON       110358000                       # Cumulative time (in ticks) in various power states
system.cpu.numCycles                           110358                       # number of cpu cycles simulated
system.cpu.numWorkItemsStarted                      0                       # number of work items this cpu started
system.cpu.numWorkItemsCompleted                    0                       # number of work items this cpu completed
system.cpu.committedInsts                        8767                       # Number of instructions committed
system.cpu.committedOps                          8767                       # Number of ops (including micro ops) committed
system.cpu.num_int_alu_accesses                  8667                       # Number of integer alu accesses
system.cpu.num_fp_alu_accesses                     16                       # Number of float alu accesses
system.cpu.num_vec_alu_accesses                     0                       # Number of vector alu accesses
system.cpu.num_func_calls                         251                       # number of times a function call or return occured
system.cpu.num_conditional_control_insts          903                       # number of instructions that are conditional controls
system.cpu.num_int_insts                         8667                       # number of integer instructions
system.cpu.num_fp_insts                            16                       # number of float instructions
system.cpu.num_vec_insts                            0                       # number of vector instructions
system.cpu.num_int_register_reads               11807                       # number of times the integer registers were read
system.cpu.num_int_register_writes               6404                       # number of times the integer registers were written
system.cpu.num_fp_register_reads                   14                       # number of times the floating registers were read
system.cpu.num_fp_register_writes                   2                       # number of times the floating registers were written
system.cpu.num_vec_register_reads                   0                       # number of times the vector registers were read
system.cpu.num_vec_register_writes                  0                       # number of times the vector registers were written
system.cpu.num_mem_refs                          2931                       # number of memory refs
system.cpu.num_load_insts                        1720                       # Number of load instructions
system.cpu.num_store_insts                       1211                       # Number of store instructions
system.cpu.num_idle_cycles                          0                       # Number of idle cycles
system.cpu.num_busy_cycles                     110358                       # Number of busy cycles
system.cpu.not_idle_fraction                        1                       # Percentage of non-idle cycles
system.cpu.idle_fraction                            0                       # Percentage of idle cycles
system.cpu.Branches                              1241                       # Number of branches fetched
system.cpu.op_class::No_OpClass                    32      0.36%      0.36% # Class of executed instruction
system.cpu.op_class::IntAlu                      5813     66.21%     66.58% # Class of executed instruction
system.cpu.op_class::IntMult                        1      0.01%     66.59% # Class of executed instruction
system.cpu.op_class::IntDiv                         0      0.00%     66.59% # Class of executed instruction
system.cpu.op_class::FloatAdd                       2      0.02%     66.61% # Class of executed instruction
system.cpu.op_class::FloatCmp                       0      0.00%     66.61% # Class of executed instruction
system.cpu.op_class::FloatCvt                       0      0.00%     66.61% # Class of executed instruction
system.cpu.op_class::FloatMult                      0      0.00%     66.61% # Class of executed instruction
system.cpu.op_class::FloatMultAcc                   0      0.00%     66.61% # Class of executed instruction
system.cpu.op_class::FloatDiv                       0      0.00%     66.61% # Class of executed instruction
system.cpu.op_class::FloatMisc                      0      0.00%     66.61% # Class of executed instruction
system.cpu.op_class::FloatSqrt                      0      0.00%     66.61% # Class of executed instruction
system.cpu.op_class::SimdAdd                        0      0.00%     66.61% # Class of executed instruction
system.cpu.op_class::SimdAddAcc                     0      0.00%     66.61% # Class of executed instruction
system.cpu.op_class::SimdAlu                        0      0.00%     66.61% # Class of executed instruction
system.cpu.op_class::SimdCmp                        0      0.00%     66.61% # Class of executed instruction
system.cpu.op_class::SimdCvt                        0      0.00%     66.61% # Class of executed instruction
system.cpu.op_class::SimdMisc                       0      0.00%     66.61% # Class of executed instruction
system.cpu.op_class::SimdMult                       0      0.00%     66.61% # Class of executed instruction
system.cpu.op_class::SimdMultAcc                    0      0.00%     66.61% # Class of executed instruction
system.cpu.op_class::SimdShift                      0      0.00%     66.61% # Class of executed instruction
system.cpu.op_class::SimdShiftAcc                   0      0.00%     66.61% # Class of executed instruction
system.cpu.op_class::SimdSqrt                       0      0.00%     66.61% # Class of executed instruction
system.cpu.op_class::SimdFloatAdd                   0      0.00%     66.61% # Class of executed instruction
system.cpu.op_class::SimdFloatAlu                   0      0.00%     66.61% # Class of executed instruction
system.cpu.op_class::SimdFloatCmp                   0      0.00%     66.61% # Class of executed instruction
system.cpu.op_class::SimdFloatCvt                   0      0.00%     66.61% # Class of executed instruction
system.cpu.op_class::SimdFloatDiv                   0      0.00%     66.61% # Class of executed instruction
system.cpu.op_class::SimdFloatMisc                  0      0.00%     66.61% # Class of executed instruction
system.cpu.op_class::SimdFloatMult                  0      0.00%     66.61% # Class of executed instruction
system.cpu.op_class::SimdFloatMultAcc               0      0.00%     66.61% # Class of executed instruction
system.cpu.op_class::SimdFloatSqrt                  0      0.00%     66.61% # Class of executed instruction
system.cpu.op_class::MemRead                     1719     19.58%     86.19% # Class of executed instruction
system.cpu.op_class::MemWrite                    1198     13.65%     99.84% # Class of executed instruction
system.cpu.op_class::FloatMemRead                   1      0.01%     99.85% # Class of executed instruction
system.cpu.op_class::FloatMemWrite                 13      0.15%    100.00% # Class of executed instruction
system.cpu.op_class::IprAccess                      0      0.00%    100.00% # Class of executed instruction
system.cpu.op_class::InstPrefetch                   0      0.00%    100.00% # Class of executed instruction
system.cpu.op_class::total                       8779                       # Class of executed instruction
system.membus.snoop_filter.tot_requests             0                       # Total number of requests made to the snoop filter.
system.membus.snoop_filter.hit_single_requests            0                       # Number of requests hitting in the snoop filter with a single holder of the requested data.
system.membus.snoop_filter.hit_multi_requests            0                       # Number of requests hitting in the snoop filter with multiple (>1) holders of the requested data.
system.membus.snoop_filter.tot_snoops               0                       # Total number of snoops made to the snoop filter.
system.membus.snoop_filter.hit_single_snoops            0                       # Number of snoops hitting in the snoop filter with a single holder of the requested data.
system.membus.snoop_filter.hit_multi_snoops            0                       # Number of snoops hitting in the snoop filter with multiple (>1) holders of the requested data.
system.membus.pwrStateResidencyTicks::UNDEFINED    110358000                       # Cumulative time (in ticks) in various power states
system.membus.trans_dist::ReadReq                2754                       # Transaction distribution
system.membus.trans_dist::ReadResp               2754                       # Transaction distribution
system.membus.trans_dist::WritebackDirty         2626                       # Transaction distribution
system.membus.pkt_count_system.cache.mem_side::system.mem_ctrl.port         8134                       # Packet count per connected master and slave (bytes)
system.membus.pkt_count::total                   8134                       # Packet count per connected master and slave (bytes)
system.membus.pkt_size_system.cache.mem_side::system.mem_ctrl.port       344320                       # Cumulative packet size per connected master and slave (bytes)
system.membus.pkt_size::total                  344320                       # Cumulative packet size per connected master and slave (bytes)
system.membus.snoops                                0                       # Total snoops (count)
system.membus.snoopTraffic                          0                       # Total snoop traffic (bytes)
system.membus.snoop_fanout::samples              2754                       # Request fanout histogram
system.membus.snoop_fanout::mean                    0                       # Request fanout histogram
system.membus.snoop_fanout::stdev                   0                       # Request fanout histogram
system.membus.snoop_fanout::underflows              0      0.00%      0.00% # Request fanout histogram
system.membus.snoop_fanout::0                    2754    100.00%    100.00% # Request fanout histogram
system.membus.snoop_fanout::overflows               0      0.00%    100.00% # Request fanout histogram
system.membus.snoop_fanout::min_value               0                       # Request fanout histogram
system.membus.snoop_fanout::max_value               0                       # Request fanout histogram
system.membus.snoop_fanout::total                2754                       # Request fanout histogram
system.membus.reqLayer0.occupancy            15884000                       # Layer occupancy (ticks)
system.membus.reqLayer0.utilization              14.4                       # Layer utilization (%)
system.membus.respLayer0.occupancy           14034750                       # Layer occupancy (ticks)
system.membus.respLayer0.utilization             12.7                       # Layer utilization (%)

---------- End Simulation Statistics   ----------
