
---------- Begin Simulation Statistics ----------
sim_seconds                                  0.834676                       # Number of seconds simulated
sim_ticks                                834676116000                       # Number of ticks simulated
final_tick                               834676116000                       # Number of ticks from beginning of simulation (restored from checkpoints and never reset)
sim_freq                                 1000000000000                       # Frequency of simulated ticks
host_inst_rate                                 290805                       # Simulator instruction rate (inst/s)
host_op_rate                                   290805                       # Simulator op (including micro ops) rate (op/s)
host_tick_rate                             5515422350                       # Simulator tick rate (ticks/s)
host_mem_usage                                8999424                       # Number of bytes of host memory used
host_seconds                                   151.34                       # Real time elapsed on the host
sim_insts                                    44008983                       # Number of instructions simulated
sim_ops                                      44008983                       # Number of ops (including micro ops) simulated
system.clk_domain.voltage_domain.voltage            1                       # Voltage in Volts
system.clk_domain.clock                          1000                       # Clock period in ticks
system.mem_ctrl.pwrStateResidencyTicks::UNDEFINED 834676116000                       # Cumulative time (in ticks) in various power states
system.mem_ctrl.bytes_read::cpu.inst       1215214720                       # Number of bytes read from this memory
system.mem_ctrl.bytes_read::cpu.data        895221696                       # Number of bytes read from this memory
system.mem_ctrl.bytes_read::total          2110436416                       # Number of bytes read from this memory
system.mem_ctrl.bytes_inst_read::cpu.inst   1215214720                       # Number of instructions bytes read from this memory
system.mem_ctrl.bytes_inst_read::total     1215214720                       # Number of instructions bytes read from this memory
system.mem_ctrl.bytes_written::writebacks   2110403648                       # Number of bytes written to this memory
system.mem_ctrl.bytes_written::total       2110403648                       # Number of bytes written to this memory
system.mem_ctrl.num_reads::cpu.inst          18987730                       # Number of read requests responded to by this memory
system.mem_ctrl.num_reads::cpu.data          13987839                       # Number of read requests responded to by this memory
system.mem_ctrl.num_reads::total             32975569                       # Number of read requests responded to by this memory
system.mem_ctrl.num_writes::writebacks       32975057                       # Number of write requests responded to by this memory
system.mem_ctrl.num_writes::total            32975057                       # Number of write requests responded to by this memory
system.mem_ctrl.bw_read::cpu.inst          1455911696                       # Total read bandwidth from this memory (bytes/s)
system.mem_ctrl.bw_read::cpu.data          1072537813                       # Total read bandwidth from this memory (bytes/s)
system.mem_ctrl.bw_read::total             2528449509                       # Total read bandwidth from this memory (bytes/s)
system.mem_ctrl.bw_inst_read::cpu.inst     1455911696                       # Instruction read bandwidth from this memory (bytes/s)
system.mem_ctrl.bw_inst_read::total        1455911696                       # Instruction read bandwidth from this memory (bytes/s)
system.mem_ctrl.bw_write::writebacks       2528410251                       # Write bandwidth from this memory (bytes/s)
system.mem_ctrl.bw_write::total            2528410251                       # Write bandwidth from this memory (bytes/s)
system.mem_ctrl.bw_total::writebacks       2528410251                       # Total bandwidth to/from this memory (bytes/s)
system.mem_ctrl.bw_total::cpu.inst         1455911696                       # Total bandwidth to/from this memory (bytes/s)
system.mem_ctrl.bw_total::cpu.data         1072537813                       # Total bandwidth to/from this memory (bytes/s)
system.mem_ctrl.bw_total::total            5056859760                       # Total bandwidth to/from this memory (bytes/s)
system.mem_ctrl.readReqs                     32975569                       # Number of read requests accepted
system.mem_ctrl.writeReqs                    32975057                       # Number of write requests accepted
system.mem_ctrl.readBursts                   32975569                       # Number of DRAM read bursts, including those serviced by the write queue
system.mem_ctrl.writeBursts                  32975057                       # Number of DRAM write bursts, including those merged in the write queue
system.mem_ctrl.bytesReadDRAM                 8602688                       # Total number of bytes read from DRAM
system.mem_ctrl.bytesReadWrQ               2101833728                       # Total number of bytes read from write queue
system.mem_ctrl.bytesWritten                  9066752                       # Total number of bytes written to DRAM
system.mem_ctrl.bytesReadSys               2110436416                       # Total read bytes from the system interface side
system.mem_ctrl.bytesWrittenSys            2110403648                       # Total written bytes from the system interface side
system.mem_ctrl.servicedByWrQ                32841152                       # Number of DRAM read bursts serviced by the write queue
system.mem_ctrl.mergedWrBursts               32833359                       # Number of DRAM write bursts merged with an existing one
system.mem_ctrl.neitherReadNorWriteReqs             0                       # Number of requests that are neither read nor write
system.mem_ctrl.perBankRdBursts::0              11788                       # Per bank write bursts
system.mem_ctrl.perBankRdBursts::1               8159                       # Per bank write bursts
system.mem_ctrl.perBankRdBursts::2               9584                       # Per bank write bursts
system.mem_ctrl.perBankRdBursts::3               7944                       # Per bank write bursts
system.mem_ctrl.perBankRdBursts::4               7940                       # Per bank write bursts
system.mem_ctrl.perBankRdBursts::5               7891                       # Per bank write bursts
system.mem_ctrl.perBankRdBursts::6               7903                       # Per bank write bursts
system.mem_ctrl.perBankRdBursts::7               7867                       # Per bank write bursts
system.mem_ctrl.perBankRdBursts::8               7940                       # Per bank write bursts
system.mem_ctrl.perBankRdBursts::9               8169                       # Per bank write bursts
system.mem_ctrl.perBankRdBursts::10              7949                       # Per bank write bursts
system.mem_ctrl.perBankRdBursts::11              8210                       # Per bank write bursts
system.mem_ctrl.perBankRdBursts::12              8219                       # Per bank write bursts
system.mem_ctrl.perBankRdBursts::13              8251                       # Per bank write bursts
system.mem_ctrl.perBankRdBursts::14              8282                       # Per bank write bursts
system.mem_ctrl.perBankRdBursts::15              8321                       # Per bank write bursts
system.mem_ctrl.perBankWrBursts::0              16327                       # Per bank write bursts
system.mem_ctrl.perBankWrBursts::1               8273                       # Per bank write bursts
system.mem_ctrl.perBankWrBursts::2              10967                       # Per bank write bursts
system.mem_ctrl.perBankWrBursts::3               8001                       # Per bank write bursts
system.mem_ctrl.perBankWrBursts::4               8013                       # Per bank write bursts
system.mem_ctrl.perBankWrBursts::5               7997                       # Per bank write bursts
system.mem_ctrl.perBankWrBursts::6               8031                       # Per bank write bursts
system.mem_ctrl.perBankWrBursts::7               7991                       # Per bank write bursts
system.mem_ctrl.perBankWrBursts::8               8032                       # Per bank write bursts
system.mem_ctrl.perBankWrBursts::9               8253                       # Per bank write bursts
system.mem_ctrl.perBankWrBursts::10              8033                       # Per bank write bursts
system.mem_ctrl.perBankWrBursts::11              8307                       # Per bank write bursts
system.mem_ctrl.perBankWrBursts::12              8317                       # Per bank write bursts
system.mem_ctrl.perBankWrBursts::13              8349                       # Per bank write bursts
system.mem_ctrl.perBankWrBursts::14              8366                       # Per bank write bursts
system.mem_ctrl.perBankWrBursts::15              8411                       # Per bank write bursts
system.mem_ctrl.numRdRetry                          0                       # Number of times read queue was full causing retry
system.mem_ctrl.numWrRetry                          0                       # Number of times write queue was full causing retry
system.mem_ctrl.totGap                   834676103000                       # Total gap between requests
system.mem_ctrl.readPktSize::0                      0                       # Read request sizes (log2)
system.mem_ctrl.readPktSize::1                      0                       # Read request sizes (log2)
system.mem_ctrl.readPktSize::2                      0                       # Read request sizes (log2)
system.mem_ctrl.readPktSize::3                      0                       # Read request sizes (log2)
system.mem_ctrl.readPktSize::4                      0                       # Read request sizes (log2)
system.mem_ctrl.readPktSize::5                      0                       # Read request sizes (log2)
system.mem_ctrl.readPktSize::6               32975569                       # Read request sizes (log2)
system.mem_ctrl.writePktSize::0                     0                       # Write request sizes (log2)
system.mem_ctrl.writePktSize::1                     0                       # Write request sizes (log2)
system.mem_ctrl.writePktSize::2                     0                       # Write request sizes (log2)
system.mem_ctrl.writePktSize::3                     0                       # Write request sizes (log2)
system.mem_ctrl.writePktSize::4                     0                       # Write request sizes (log2)
system.mem_ctrl.writePktSize::5                     0                       # Write request sizes (log2)
system.mem_ctrl.writePktSize::6              32975057                       # Write request sizes (log2)
system.mem_ctrl.rdQLenPdf::0                   134417                       # What read queue length does an incoming req see
system.mem_ctrl.rdQLenPdf::1                        0                       # What read queue length does an incoming req see
system.mem_ctrl.rdQLenPdf::2                        0                       # What read queue length does an incoming req see
system.mem_ctrl.rdQLenPdf::3                        0                       # What read queue length does an incoming req see
system.mem_ctrl.rdQLenPdf::4                        0                       # What read queue length does an incoming req see
system.mem_ctrl.rdQLenPdf::5                        0                       # What read queue length does an incoming req see
system.mem_ctrl.rdQLenPdf::6                        0                       # What read queue length does an incoming req see
system.mem_ctrl.rdQLenPdf::7                        0                       # What read queue length does an incoming req see
system.mem_ctrl.rdQLenPdf::8                        0                       # What read queue length does an incoming req see
system.mem_ctrl.rdQLenPdf::9                        0                       # What read queue length does an incoming req see
system.mem_ctrl.rdQLenPdf::10                       0                       # What read queue length does an incoming req see
system.mem_ctrl.rdQLenPdf::11                       0                       # What read queue length does an incoming req see
system.mem_ctrl.rdQLenPdf::12                       0                       # What read queue length does an incoming req see
system.mem_ctrl.rdQLenPdf::13                       0                       # What read queue length does an incoming req see
system.mem_ctrl.rdQLenPdf::14                       0                       # What read queue length does an incoming req see
system.mem_ctrl.rdQLenPdf::15                       0                       # What read queue length does an incoming req see
system.mem_ctrl.rdQLenPdf::16                       0                       # What read queue length does an incoming req see
system.mem_ctrl.rdQLenPdf::17                       0                       # What read queue length does an incoming req see
system.mem_ctrl.rdQLenPdf::18                       0                       # What read queue length does an incoming req see
system.mem_ctrl.rdQLenPdf::19                       0                       # What read queue length does an incoming req see
system.mem_ctrl.rdQLenPdf::20                       0                       # What read queue length does an incoming req see
system.mem_ctrl.rdQLenPdf::21                       0                       # What read queue length does an incoming req see
system.mem_ctrl.rdQLenPdf::22                       0                       # What read queue length does an incoming req see
system.mem_ctrl.rdQLenPdf::23                       0                       # What read queue length does an incoming req see
system.mem_ctrl.rdQLenPdf::24                       0                       # What read queue length does an incoming req see
system.mem_ctrl.rdQLenPdf::25                       0                       # What read queue length does an incoming req see
system.mem_ctrl.rdQLenPdf::26                       0                       # What read queue length does an incoming req see
system.mem_ctrl.rdQLenPdf::27                       0                       # What read queue length does an incoming req see
system.mem_ctrl.rdQLenPdf::28                       0                       # What read queue length does an incoming req see
system.mem_ctrl.rdQLenPdf::29                       0                       # What read queue length does an incoming req see
system.mem_ctrl.rdQLenPdf::30                       0                       # What read queue length does an incoming req see
system.mem_ctrl.rdQLenPdf::31                       0                       # What read queue length does an incoming req see
system.mem_ctrl.wrQLenPdf::0                        1                       # What write queue length does an incoming req see
system.mem_ctrl.wrQLenPdf::1                        1                       # What write queue length does an incoming req see
system.mem_ctrl.wrQLenPdf::2                        1                       # What write queue length does an incoming req see
system.mem_ctrl.wrQLenPdf::3                        1                       # What write queue length does an incoming req see
system.mem_ctrl.wrQLenPdf::4                        1                       # What write queue length does an incoming req see
system.mem_ctrl.wrQLenPdf::5                        1                       # What write queue length does an incoming req see
system.mem_ctrl.wrQLenPdf::6                        1                       # What write queue length does an incoming req see
system.mem_ctrl.wrQLenPdf::7                        1                       # What write queue length does an incoming req see
system.mem_ctrl.wrQLenPdf::8                        1                       # What write queue length does an incoming req see
system.mem_ctrl.wrQLenPdf::9                        1                       # What write queue length does an incoming req see
system.mem_ctrl.wrQLenPdf::10                       1                       # What write queue length does an incoming req see
system.mem_ctrl.wrQLenPdf::11                       1                       # What write queue length does an incoming req see
system.mem_ctrl.wrQLenPdf::12                       1                       # What write queue length does an incoming req see
system.mem_ctrl.wrQLenPdf::13                       1                       # What write queue length does an incoming req see
system.mem_ctrl.wrQLenPdf::14                       1                       # What write queue length does an incoming req see
system.mem_ctrl.wrQLenPdf::15                    6384                       # What write queue length does an incoming req see
system.mem_ctrl.wrQLenPdf::16                    6893                       # What write queue length does an incoming req see
system.mem_ctrl.wrQLenPdf::17                    7959                       # What write queue length does an incoming req see
system.mem_ctrl.wrQLenPdf::18                    9571                       # What write queue length does an incoming req see
system.mem_ctrl.wrQLenPdf::19                    7936                       # What write queue length does an incoming req see
system.mem_ctrl.wrQLenPdf::20                    7929                       # What write queue length does an incoming req see
system.mem_ctrl.wrQLenPdf::21                    7916                       # What write queue length does an incoming req see
system.mem_ctrl.wrQLenPdf::22                    7917                       # What write queue length does an incoming req see
system.mem_ctrl.wrQLenPdf::23                    7921                       # What write queue length does an incoming req see
system.mem_ctrl.wrQLenPdf::24                    7916                       # What write queue length does an incoming req see
system.mem_ctrl.wrQLenPdf::25                    7924                       # What write queue length does an incoming req see
system.mem_ctrl.wrQLenPdf::26                    7917                       # What write queue length does an incoming req see
system.mem_ctrl.wrQLenPdf::27                    7917                       # What write queue length does an incoming req see
system.mem_ctrl.wrQLenPdf::28                    7916                       # What write queue length does an incoming req see
system.mem_ctrl.wrQLenPdf::29                    7923                       # What write queue length does an incoming req see
system.mem_ctrl.wrQLenPdf::30                    7914                       # What write queue length does an incoming req see
system.mem_ctrl.wrQLenPdf::31                    7916                       # What write queue length does an incoming req see
system.mem_ctrl.wrQLenPdf::32                    7914                       # What write queue length does an incoming req see
system.mem_ctrl.wrQLenPdf::33                       0                       # What write queue length does an incoming req see
system.mem_ctrl.wrQLenPdf::34                       0                       # What write queue length does an incoming req see
system.mem_ctrl.wrQLenPdf::35                       0                       # What write queue length does an incoming req see
system.mem_ctrl.wrQLenPdf::36                       0                       # What write queue length does an incoming req see
system.mem_ctrl.wrQLenPdf::37                       0                       # What write queue length does an incoming req see
system.mem_ctrl.wrQLenPdf::38                       0                       # What write queue length does an incoming req see
system.mem_ctrl.wrQLenPdf::39                       0                       # What write queue length does an incoming req see
system.mem_ctrl.wrQLenPdf::40                       0                       # What write queue length does an incoming req see
system.mem_ctrl.wrQLenPdf::41                       0                       # What write queue length does an incoming req see
system.mem_ctrl.wrQLenPdf::42                       0                       # What write queue length does an incoming req see
system.mem_ctrl.wrQLenPdf::43                       0                       # What write queue length does an incoming req see
system.mem_ctrl.wrQLenPdf::44                       0                       # What write queue length does an incoming req see
system.mem_ctrl.wrQLenPdf::45                       0                       # What write queue length does an incoming req see
system.mem_ctrl.wrQLenPdf::46                       0                       # What write queue length does an incoming req see
system.mem_ctrl.wrQLenPdf::47                       0                       # What write queue length does an incoming req see
system.mem_ctrl.wrQLenPdf::48                       0                       # What write queue length does an incoming req see
system.mem_ctrl.wrQLenPdf::49                       0                       # What write queue length does an incoming req see
system.mem_ctrl.wrQLenPdf::50                       0                       # What write queue length does an incoming req see
system.mem_ctrl.wrQLenPdf::51                       0                       # What write queue length does an incoming req see
system.mem_ctrl.wrQLenPdf::52                       0                       # What write queue length does an incoming req see
system.mem_ctrl.wrQLenPdf::53                       0                       # What write queue length does an incoming req see
system.mem_ctrl.wrQLenPdf::54                       0                       # What write queue length does an incoming req see
system.mem_ctrl.wrQLenPdf::55                       0                       # What write queue length does an incoming req see
system.mem_ctrl.wrQLenPdf::56                       0                       # What write queue length does an incoming req see
system.mem_ctrl.wrQLenPdf::57                       0                       # What write queue length does an incoming req see
system.mem_ctrl.wrQLenPdf::58                       0                       # What write queue length does an incoming req see
system.mem_ctrl.wrQLenPdf::59                       0                       # What write queue length does an incoming req see
system.mem_ctrl.wrQLenPdf::60                       0                       # What write queue length does an incoming req see
system.mem_ctrl.wrQLenPdf::61                       0                       # What write queue length does an incoming req see
system.mem_ctrl.wrQLenPdf::62                       0                       # What write queue length does an incoming req see
system.mem_ctrl.wrQLenPdf::63                       0                       # What write queue length does an incoming req see
system.mem_ctrl.bytesPerActivate::samples       115491                       # Bytes accessed per row activation
system.mem_ctrl.bytesPerActivate::mean     152.990761                       # Bytes accessed per row activation
system.mem_ctrl.bytesPerActivate::gmean     96.485483                       # Bytes accessed per row activation
system.mem_ctrl.bytesPerActivate::stdev    236.563045                       # Bytes accessed per row activation
system.mem_ctrl.bytesPerActivate::0-127         77465     67.07%     67.07% # Bytes accessed per row activation
system.mem_ctrl.bytesPerActivate::128-255        26198     22.68%     89.76% # Bytes accessed per row activation
system.mem_ctrl.bytesPerActivate::256-383         3259      2.82%     92.58% # Bytes accessed per row activation
system.mem_ctrl.bytesPerActivate::384-511          396      0.34%     92.92% # Bytes accessed per row activation
system.mem_ctrl.bytesPerActivate::512-639          278      0.24%     93.16% # Bytes accessed per row activation
system.mem_ctrl.bytesPerActivate::640-767          233      0.20%     93.37% # Bytes accessed per row activation
system.mem_ctrl.bytesPerActivate::768-895          302      0.26%     93.63% # Bytes accessed per row activation
system.mem_ctrl.bytesPerActivate::896-1023          576      0.50%     94.13% # Bytes accessed per row activation
system.mem_ctrl.bytesPerActivate::1024-1151         6784      5.87%    100.00% # Bytes accessed per row activation
system.mem_ctrl.bytesPerActivate::total        115491                       # Bytes accessed per row activation
system.mem_ctrl.rdPerTurnAround::samples         7914                       # Reads before turning the bus around for writes
system.mem_ctrl.rdPerTurnAround::mean       16.982942                       # Reads before turning the bus around for writes
system.mem_ctrl.rdPerTurnAround::gmean      16.888104                       # Reads before turning the bus around for writes
system.mem_ctrl.rdPerTurnAround::stdev       6.034597                       # Reads before turning the bus around for writes
system.mem_ctrl.rdPerTurnAround::0-31            7913     99.99%     99.99% # Reads before turning the bus around for writes
system.mem_ctrl.rdPerTurnAround::544-575            1      0.01%    100.00% # Reads before turning the bus around for writes
system.mem_ctrl.rdPerTurnAround::total           7914                       # Reads before turning the bus around for writes
system.mem_ctrl.wrPerTurnAround::samples         7914                       # Writes before turning the bus around for reads
system.mem_ctrl.wrPerTurnAround::mean       17.900935                       # Writes before turning the bus around for reads
system.mem_ctrl.wrPerTurnAround::gmean      17.889646                       # Writes before turning the bus around for reads
system.mem_ctrl.wrPerTurnAround::stdev       0.629565                       # Writes before turning the bus around for reads
system.mem_ctrl.wrPerTurnAround::16               288      3.64%      3.64% # Writes before turning the bus around for reads
system.mem_ctrl.wrPerTurnAround::17              1111     14.04%     17.68% # Writes before turning the bus around for reads
system.mem_ctrl.wrPerTurnAround::18              5636     71.22%     88.89% # Writes before turning the bus around for reads
system.mem_ctrl.wrPerTurnAround::19               855     10.80%     99.70% # Writes before turning the bus around for reads
system.mem_ctrl.wrPerTurnAround::20                24      0.30%    100.00% # Writes before turning the bus around for reads
system.mem_ctrl.wrPerTurnAround::total           7914                       # Writes before turning the bus around for reads
system.mem_ctrl.totQLat                    6345069000                       # Total ticks spent queuing
system.mem_ctrl.totMemAccLat               8865387750                       # Total ticks spent from burst creation until serviced by the DRAM
system.mem_ctrl.totBusLat                   672085000                       # Total ticks spent in databus transfers
system.mem_ctrl.avgQLat                      47204.36                       # Average queueing delay per DRAM burst
system.mem_ctrl.avgBusLat                     5000.00                       # Average bus latency per DRAM burst
system.mem_ctrl.avgMemAccLat                 65954.36                       # Average memory access latency per DRAM burst
system.mem_ctrl.avgRdBW                         10.31                       # Average DRAM read bandwidth in MiByte/s
system.mem_ctrl.avgWrBW                         10.86                       # Average achieved write bandwidth in MiByte/s
system.mem_ctrl.avgRdBWSys                    2528.45                       # Average system read bandwidth in MiByte/s
system.mem_ctrl.avgWrBWSys                    2528.41                       # Average system write bandwidth in MiByte/s
system.mem_ctrl.peakBW                       12800.00                       # Theoretical peak bandwidth in MiByte/s
system.mem_ctrl.busUtil                          0.17                       # Data bus utilization in percentage
system.mem_ctrl.busUtilRead                      0.08                       # Data bus utilization in percentage for reads
system.mem_ctrl.busUtilWrite                     0.08                       # Data bus utilization in percentage for writes
system.mem_ctrl.avgRdQLen                        1.00                       # Average read queue length when enqueuing
system.mem_ctrl.avgWrQLen                       24.76                       # Average write queue length when enqueuing
system.mem_ctrl.readRowHits                     30766                       # Number of row buffer hits during reads
system.mem_ctrl.writeRowHits                   129825                       # Number of row buffer hits during writes
system.mem_ctrl.readRowHitRate                  22.89                       # Row buffer hit rate for reads
system.mem_ctrl.writeRowHitRate                 91.62                       # Row buffer hit rate for writes
system.mem_ctrl.avgGap                       12656.08                       # Average gap between requests
system.mem_ctrl.pageHitRate                     58.16                       # Row buffer hit rate, read and write combined
system.mem_ctrl_0.actEnergy                 429763740                       # Energy for activate commands per rank (pJ)
system.mem_ctrl_0.preEnergy                 228421050                       # Energy for precharge commands per rank (pJ)
system.mem_ctrl_0.readEnergy                493202640                       # Energy for read commands per rank (pJ)
system.mem_ctrl_0.writeEnergy               394632000                       # Energy for write commands per rank (pJ)
system.mem_ctrl_0.refreshEnergy          38674378080.000008                       # Energy for refresh commands per rank (pJ)
system.mem_ctrl_0.actBackEnergy            9650223120                       # Energy for active background per rank (pJ)
system.mem_ctrl_0.preBackEnergy            1306007520                       # Energy for precharge background per rank (pJ)
system.mem_ctrl_0.actPowerDownEnergy     102825982200                       # Energy for active power-down per rank (pJ)
system.mem_ctrl_0.prePowerDownEnergy      75040963200                       # Energy for precharge power-down per rank (pJ)
system.mem_ctrl_0.selfRefreshEnergy       96824053860                       # Energy for self refresh per rank (pJ)
system.mem_ctrl_0.totalEnergy            325927620060                       # Total energy per rank (pJ)
system.mem_ctrl_0.averagePower             390.483941                       # Core power per rank (mW)
system.mem_ctrl_0.totalIdleTime          809978757250                       # Total Idle time Per DRAM Rank
system.mem_ctrl_0.memoryStateTime::IDLE    1937479000                       # Time in different power states
system.mem_ctrl_0.memoryStateTime::REF    16397358000                       # Time in different power states
system.mem_ctrl_0.memoryStateTime::SREF  389062850500                       # Time in different power states
system.mem_ctrl_0.memoryStateTime::PRE_PDN 195416463250                       # Time in different power states
system.mem_ctrl_0.memoryStateTime::ACT     6362479750                       # Time in different power states
system.mem_ctrl_0.memoryStateTime::ACT_PDN 225499485500                       # Time in different power states
system.mem_ctrl_1.actEnergy                 394863420                       # Energy for activate commands per rank (pJ)
system.mem_ctrl_1.preEnergy                 209867295                       # Energy for precharge commands per rank (pJ)
system.mem_ctrl_1.readEnergy                466534740                       # Energy for read commands per rank (pJ)
system.mem_ctrl_1.writeEnergy               344874960                       # Energy for write commands per rank (pJ)
system.mem_ctrl_1.refreshEnergy          39847725840.000008                       # Energy for refresh commands per rank (pJ)
system.mem_ctrl_1.actBackEnergy           11401039680                       # Energy for active background per rank (pJ)
system.mem_ctrl_1.preBackEnergy            1368330720                       # Energy for precharge background per rank (pJ)
system.mem_ctrl_1.actPowerDownEnergy     102428762880                       # Energy for active power-down per rank (pJ)
system.mem_ctrl_1.prePowerDownEnergy      77326243200                       # Energy for precharge power-down per rank (pJ)
system.mem_ctrl_1.selfRefreshEnergy       95097967470                       # Energy for self refresh per rank (pJ)
system.mem_ctrl_1.totalEnergy            329003647875                       # Total energy per rank (pJ)
system.mem_ctrl_1.averagePower             394.169237                       # Core power per rank (mW)
system.mem_ctrl_1.totalIdleTime          805849366000                       # Total Idle time Per DRAM Rank
system.mem_ctrl_1.memoryStateTime::IDLE    2151030000                       # Time in different power states
system.mem_ctrl_1.memoryStateTime::REF    16897484000                       # Time in different power states
system.mem_ctrl_1.memoryStateTime::SREF  379853231250                       # Time in different power states
system.mem_ctrl_1.memoryStateTime::PRE_PDN 201368104250                       # Time in different power states
system.mem_ctrl_1.memoryStateTime::ACT     9777794500                       # Time in different power states
system.mem_ctrl_1.memoryStateTime::ACT_PDN 224628472000                       # Time in different power states
system.pwrStateResidencyTicks::UNDEFINED 834676116000                       # Cumulative time (in ticks) in various power states
system.cache.pwrStateResidencyTicks::UNDEFINED 834676116000                       # Cumulative time (in ticks) in various power states
system.cache.hits                            25037620                       # Number of hits
system.cache.misses                          32975569                       # Number of misses
system.cache.missLatency::samples            32975569                       # Ticks for misses to the cache
system.cache.missLatency::mean           23552.677044                       # Ticks for misses to the cache
system.cache.missLatency::gmean          23322.247773                       # Ticks for misses to the cache
system.cache.missLatency::stdev           8429.921860                       # Ticks for misses to the cache
system.cache.missLatency::0-65535            32869898     99.68%     99.68% # Ticks for misses to the cache
system.cache.missLatency::65536-131071          92100      0.28%     99.96% # Ticks for misses to the cache
system.cache.missLatency::131072-196607          1450      0.00%     99.96% # Ticks for misses to the cache
system.cache.missLatency::196608-262143          6554      0.02%     99.98% # Ticks for misses to the cache
system.cache.missLatency::262144-327679           270      0.00%     99.98% # Ticks for misses to the cache
system.cache.missLatency::327680-393215           121      0.00%     99.98% # Ticks for misses to the cache
system.cache.missLatency::393216-458751             6      0.00%     99.98% # Ticks for misses to the cache
system.cache.missLatency::458752-524287            26      0.00%     99.98% # Ticks for misses to the cache
system.cache.missLatency::524288-589823             5      0.00%     99.98% # Ticks for misses to the cache
system.cache.missLatency::589824-655359          5139      0.02%    100.00% # Ticks for misses to the cache
system.cache.missLatency::655360-720895             0      0.00%    100.00% # Ticks for misses to the cache
system.cache.missLatency::720896-786431             0      0.00%    100.00% # Ticks for misses to the cache
system.cache.missLatency::786432-851967             0      0.00%    100.00% # Ticks for misses to the cache
system.cache.missLatency::851968-917503             0      0.00%    100.00% # Ticks for misses to the cache
system.cache.missLatency::917504-983039             0      0.00%    100.00% # Ticks for misses to the cache
system.cache.missLatency::983040-1.04858e+06            0      0.00%    100.00% # Ticks for misses to the cache
system.cache.missLatency::total              32975569                       # Ticks for misses to the cache
system.cache.hitRatio                        0.431585                       # The ratio of hits to the total accesses to the cache
system.cpu.dtb.fetch_hits                           0                       # ITB hits
system.cpu.dtb.fetch_misses                         0                       # ITB misses
system.cpu.dtb.fetch_acv                            0                       # ITB acv
system.cpu.dtb.fetch_accesses                       0                       # ITB accesses
system.cpu.dtb.read_hits                     10001315                       # DTB read hits
system.cpu.dtb.read_misses                        516                       # DTB read misses
system.cpu.dtb.read_acv                             0                       # DTB read access violations
system.cpu.dtb.read_accesses                 10001831                       # DTB read accesses
system.cpu.dtb.write_hits                     4001460                       # DTB write hits
system.cpu.dtb.write_misses                       915                       # DTB write misses
system.cpu.dtb.write_acv                            0                       # DTB write access violations
system.cpu.dtb.write_accesses                 4002375                       # DTB write accesses
system.cpu.dtb.data_hits                     14002775                       # DTB hits
system.cpu.dtb.data_misses                       1431                       # DTB misses
system.cpu.dtb.data_acv                             0                       # DTB access violations
system.cpu.dtb.data_accesses                 14004206                       # DTB accesses
system.cpu.itb.fetch_hits                    44010415                       # ITB hits
system.cpu.itb.fetch_misses                        19                       # ITB misses
system.cpu.itb.fetch_acv                            0                       # ITB acv
system.cpu.itb.fetch_accesses                44010434                       # ITB accesses
system.cpu.itb.read_hits                            0                       # DTB read hits
system.cpu.itb.read_misses                          0                       # DTB read misses
system.cpu.itb.read_acv                             0                       # DTB read access violations
system.cpu.itb.read_accesses                        0                       # DTB read accesses
system.cpu.itb.write_hits                           0                       # DTB write hits
system.cpu.itb.write_misses                         0                       # DTB write misses
system.cpu.itb.write_acv                            0                       # DTB write access violations
system.cpu.itb.write_accesses                       0                       # DTB write accesses
system.cpu.itb.data_hits                            0                       # DTB hits
system.cpu.itb.data_misses                          0                       # DTB misses
system.cpu.itb.data_acv                             0                       # DTB access violations
system.cpu.itb.data_accesses                        0                       # DTB accesses
system.cpu.workload.numSyscalls                    10                       # Number of system calls
system.cpu.pwrStateResidencyTicks::ON    834676116000                       # Cumulative time (in ticks) in various power states
system.cpu.numCycles                        834676116                       # number of cpu cycles simulated
system.cpu.numWorkItemsStarted                      0                       # number of work items this cpu started
system.cpu.numWorkItemsCompleted                    0                       # number of work items this cpu completed
system.cpu.committedInsts                    44008983                       # Number of instructions committed
system.cpu.committedOps                      44008983                       # Number of ops (including micro ops) committed
system.cpu.num_int_alu_accesses              42010330                       # Number of integer alu accesses
system.cpu.num_fp_alu_accesses                     16                       # Number of float alu accesses
system.cpu.num_vec_alu_accesses                     0                       # Number of vector alu accesses
system.cpu.num_func_calls                         231                       # number of times a function call or return occured
system.cpu.num_conditional_control_insts      2001276                       # number of instructions that are conditional controls
system.cpu.num_int_insts                     42010330                       # number of integer instructions
system.cpu.num_fp_insts                            16                       # number of float instructions
system.cpu.num_vec_insts                            0                       # number of vector instructions
system.cpu.num_int_register_reads            53014129                       # number of times the integer registers were read
system.cpu.num_int_register_writes           36006038                       # number of times the integer registers were written
system.cpu.num_fp_register_reads                   14                       # number of times the floating registers were read
system.cpu.num_fp_register_writes                   2                       # number of times the floating registers were written
system.cpu.num_vec_register_reads                   0                       # number of times the vector registers were read
system.cpu.num_vec_register_writes                  0                       # number of times the vector registers were written
system.cpu.num_mem_refs                      14004206                       # number of memory refs
system.cpu.num_load_insts                    10001831                       # Number of load instructions
system.cpu.num_store_insts                    4002375                       # Number of store instructions
system.cpu.num_idle_cycles                          0                       # Number of idle cycles
system.cpu.num_busy_cycles                  834676116                       # Number of busy cycles
system.cpu.not_idle_fraction                        1                       # Percentage of non-idle cycles
system.cpu.idle_fraction                            0                       # Percentage of idle cycles
system.cpu.Branches                           4001572                       # Number of branches fetched
system.cpu.op_class::No_OpClass                    22      0.00%      0.00% # Class of executed instruction
system.cpu.op_class::IntAlu                  30006176     68.18%     68.18% # Class of executed instruction
system.cpu.op_class::IntMult                        8      0.00%     68.18% # Class of executed instruction
system.cpu.op_class::IntDiv                         0      0.00%     68.18% # Class of executed instruction
system.cpu.op_class::FloatAdd                       2      0.00%     68.18% # Class of executed instruction
system.cpu.op_class::FloatCmp                       0      0.00%     68.18% # Class of executed instruction
system.cpu.op_class::FloatCvt                       0      0.00%     68.18% # Class of executed instruction
system.cpu.op_class::FloatMult                      0      0.00%     68.18% # Class of executed instruction
system.cpu.op_class::FloatMultAcc                   0      0.00%     68.18% # Class of executed instruction
system.cpu.op_class::FloatDiv                       0      0.00%     68.18% # Class of executed instruction
system.cpu.op_class::FloatMisc                      0      0.00%     68.18% # Class of executed instruction
system.cpu.op_class::FloatSqrt                      0      0.00%     68.18% # Class of executed instruction
system.cpu.op_class::SimdAdd                        0      0.00%     68.18% # Class of executed instruction
system.cpu.op_class::SimdAddAcc                     0      0.00%     68.18% # Class of executed instruction
system.cpu.op_class::SimdAlu                        0      0.00%     68.18% # Class of executed instruction
system.cpu.op_class::SimdCmp                        0      0.00%     68.18% # Class of executed instruction
system.cpu.op_class::SimdCvt                        0      0.00%     68.18% # Class of executed instruction
system.cpu.op_class::SimdMisc                       0      0.00%     68.18% # Class of executed instruction
system.cpu.op_class::SimdMult                       0      0.00%     68.18% # Class of executed instruction
system.cpu.op_class::SimdMultAcc                    0      0.00%     68.18% # Class of executed instruction
system.cpu.op_class::SimdShift                      0      0.00%     68.18% # Class of executed instruction
system.cpu.op_class::SimdShiftAcc                   0      0.00%     68.18% # Class of executed instruction
system.cpu.op_class::SimdSqrt                       0      0.00%     68.18% # Class of executed instruction
system.cpu.op_class::SimdFloatAdd                   0      0.00%     68.18% # Class of executed instruction
system.cpu.op_class::SimdFloatAlu                   0      0.00%     68.18% # Class of executed instruction
system.cpu.op_class::SimdFloatCmp                   0      0.00%     68.18% # Class of executed instruction
system.cpu.op_class::SimdFloatCvt                   0      0.00%     68.18% # Class of executed instruction
system.cpu.op_class::SimdFloatDiv                   0      0.00%     68.18% # Class of executed instruction
system.cpu.op_class::SimdFloatMisc                  0      0.00%     68.18% # Class of executed instruction
system.cpu.op_class::SimdFloatMult                  0      0.00%     68.18% # Class of executed instruction
system.cpu.op_class::SimdFloatMultAcc               0      0.00%     68.18% # Class of executed instruction
system.cpu.op_class::SimdFloatSqrt                  0      0.00%     68.18% # Class of executed instruction
system.cpu.op_class::MemRead                 10001830     22.73%     90.91% # Class of executed instruction
system.cpu.op_class::MemWrite                 4002362      9.09%    100.00% # Class of executed instruction
system.cpu.op_class::FloatMemRead                   1      0.00%    100.00% # Class of executed instruction
system.cpu.op_class::FloatMemWrite                 13      0.00%    100.00% # Class of executed instruction
system.cpu.op_class::IprAccess                      0      0.00%    100.00% # Class of executed instruction
system.cpu.op_class::InstPrefetch                   0      0.00%    100.00% # Class of executed instruction
system.cpu.op_class::total                   44010414                       # Class of executed instruction
system.membus.snoop_filter.tot_requests             0                       # Total number of requests made to the snoop filter.
system.membus.snoop_filter.hit_single_requests            0                       # Number of requests hitting in the snoop filter with a single holder of the requested data.
system.membus.snoop_filter.hit_multi_requests            0                       # Number of requests hitting in the snoop filter with multiple (>1) holders of the requested data.
system.membus.snoop_filter.tot_snoops               0                       # Total number of snoops made to the snoop filter.
system.membus.snoop_filter.hit_single_snoops            0                       # Number of snoops hitting in the snoop filter with a single holder of the requested data.
system.membus.snoop_filter.hit_multi_snoops            0                       # Number of snoops hitting in the snoop filter with multiple (>1) holders of the requested data.
system.membus.pwrStateResidencyTicks::UNDEFINED 834676116000                       # Cumulative time (in ticks) in various power states
system.membus.trans_dist::ReadReq            32975569                       # Transaction distribution
system.membus.trans_dist::ReadResp           32975569                       # Transaction distribution
system.membus.trans_dist::WritebackDirty     32975057                       # Transaction distribution
system.membus.pkt_count_system.cache.mem_side::system.mem_ctrl.port     98926195                       # Packet count per connected master and slave (bytes)
system.membus.pkt_count::total               98926195                       # Packet count per connected master and slave (bytes)
system.membus.pkt_size_system.cache.mem_side::system.mem_ctrl.port   4220840064                       # Cumulative packet size per connected master and slave (bytes)
system.membus.pkt_size::total              4220840064                       # Cumulative packet size per connected master and slave (bytes)
system.membus.snoops                                0                       # Total snoops (count)
system.membus.snoopTraffic                          0                       # Total snoop traffic (bytes)
system.membus.snoop_fanout::samples          32975569                       # Request fanout histogram
system.membus.snoop_fanout::mean                    0                       # Request fanout histogram
system.membus.snoop_fanout::stdev                   0                       # Request fanout histogram
system.membus.snoop_fanout::underflows              0      0.00%      0.00% # Request fanout histogram
system.membus.snoop_fanout::0                32975569    100.00%    100.00% # Request fanout histogram
system.membus.snoop_fanout::overflows               0      0.00%    100.00% # Request fanout histogram
system.membus.snoop_fanout::min_value               0                       # Request fanout histogram
system.membus.snoop_fanout::max_value               0                       # Request fanout histogram
system.membus.snoop_fanout::total            32975569                       # Request fanout histogram
system.membus.reqLayer0.occupancy        197850854000                       # Layer occupancy (ticks)
system.membus.reqLayer0.utilization              23.7                       # Layer utilization (%)
system.membus.respLayer0.occupancy       164936611250                       # Layer occupancy (ticks)
system.membus.respLayer0.utilization             19.8                       # Layer utilization (%)

---------- End Simulation Statistics   ----------
