
---------- Begin Simulation Statistics ----------
sim_seconds                                  0.828341                       # Number of seconds simulated
sim_ticks                                828340622000                       # Number of ticks simulated
final_tick                               828340622000                       # Number of ticks from beginning of simulation (restored from checkpoints and never reset)
sim_freq                                 1000000000000                       # Frequency of simulated ticks
host_inst_rate                                  13809                       # Simulator instruction rate (inst/s)
host_op_rate                                    13809                       # Simulator op (including micro ops) rate (op/s)
host_tick_rate                              259917852                       # Simulator tick rate (ticks/s)
host_mem_usage                                8997372                       # Number of bytes of host memory used
host_seconds                                  3186.93                       # Real time elapsed on the host
sim_insts                                    44008983                       # Number of instructions simulated
sim_ops                                      44008983                       # Number of ops (including micro ops) simulated
system.clk_domain.voltage_domain.voltage            1                       # Voltage in Volts
system.clk_domain.clock                          1000                       # Clock period in ticks
system.mem_ctrl.pwrStateResidencyTicks::UNDEFINED 828340622000                       # Cumulative time (in ticks) in various power states
system.mem_ctrl.bytes_read::cpu.inst       1206999872                       # Number of bytes read from this memory
system.mem_ctrl.bytes_read::cpu.data        887006848                       # Number of bytes read from this memory
system.mem_ctrl.bytes_read::total          2094006720                       # Number of bytes read from this memory
system.mem_ctrl.bytes_inst_read::cpu.inst   1206999872                       # Number of instructions bytes read from this memory
system.mem_ctrl.bytes_inst_read::total     1206999872                       # Number of instructions bytes read from this memory
system.mem_ctrl.bytes_written::writebacks   2093973952                       # Number of bytes written to this memory
system.mem_ctrl.bytes_written::total       2093973952                       # Number of bytes written to this memory
system.mem_ctrl.num_reads::cpu.inst          18859373                       # Number of read requests responded to by this memory
system.mem_ctrl.num_reads::cpu.data          13859482                       # Number of read requests responded to by this memory
system.mem_ctrl.num_reads::total             32718855                       # Number of read requests responded to by this memory
system.mem_ctrl.num_writes::writebacks       32718343                       # Number of write requests responded to by this memory
system.mem_ctrl.num_writes::total            32718343                       # Number of write requests responded to by this memory
system.mem_ctrl.bw_read::cpu.inst          1457129881                       # Total read bandwidth from this memory (bytes/s)
system.mem_ctrl.bw_read::cpu.data          1070823795                       # Total read bandwidth from this memory (bytes/s)
system.mem_ctrl.bw_read::total             2527953676                       # Total read bandwidth from this memory (bytes/s)
system.mem_ctrl.bw_inst_read::cpu.inst     1457129881                       # Instruction read bandwidth from this memory (bytes/s)
system.mem_ctrl.bw_inst_read::total        1457129881                       # Instruction read bandwidth from this memory (bytes/s)
system.mem_ctrl.bw_write::writebacks       2527914117                       # Write bandwidth from this memory (bytes/s)
system.mem_ctrl.bw_write::total            2527914117                       # Write bandwidth from this memory (bytes/s)
system.mem_ctrl.bw_total::writebacks       2527914117                       # Total bandwidth to/from this memory (bytes/s)
system.mem_ctrl.bw_total::cpu.inst         1457129881                       # Total bandwidth to/from this memory (bytes/s)
system.mem_ctrl.bw_total::cpu.data         1070823795                       # Total bandwidth to/from this memory (bytes/s)
system.mem_ctrl.bw_total::total            5055867793                       # Total bandwidth to/from this memory (bytes/s)
system.mem_ctrl.readReqs                     32718855                       # Number of read requests accepted
system.mem_ctrl.writeReqs                    32718343                       # Number of write requests accepted
system.mem_ctrl.readBursts                   32718855                       # Number of DRAM read bursts, including those serviced by the write queue
system.mem_ctrl.writeBursts                  32718343                       # Number of DRAM write bursts, including those merged in the write queue
system.mem_ctrl.bytesReadDRAM                 8614784                       # Total number of bytes read from DRAM
system.mem_ctrl.bytesReadWrQ               2085391936                       # Total number of bytes read from write queue
system.mem_ctrl.bytesWritten                  9108160                       # Total number of bytes written to DRAM
system.mem_ctrl.bytesReadSys               2094006720                       # Total read bytes from the system interface side
system.mem_ctrl.bytesWrittenSys            2093973952                       # Total written bytes from the system interface side
system.mem_ctrl.servicedByWrQ                32584249                       # Number of DRAM read bursts serviced by the write queue
system.mem_ctrl.mergedWrBursts               32576008                       # Number of DRAM write bursts merged with an existing one
system.mem_ctrl.neitherReadNorWriteReqs             0                       # Number of requests that are neither read nor write
system.mem_ctrl.perBankRdBursts::0              11867                       # Per bank write bursts
system.mem_ctrl.perBankRdBursts::1               8267                       # Per bank write bursts
system.mem_ctrl.perBankRdBursts::2               9806                       # Per bank write bursts
system.mem_ctrl.perBankRdBursts::3               8006                       # Per bank write bursts
system.mem_ctrl.perBankRdBursts::4               8003                       # Per bank write bursts
system.mem_ctrl.perBankRdBursts::5               7935                       # Per bank write bursts
system.mem_ctrl.perBankRdBursts::6               7945                       # Per bank write bursts
system.mem_ctrl.perBankRdBursts::7               7844                       # Per bank write bursts
system.mem_ctrl.perBankRdBursts::8               7906                       # Per bank write bursts
system.mem_ctrl.perBankRdBursts::9               8181                       # Per bank write bursts
system.mem_ctrl.perBankRdBursts::10              7905                       # Per bank write bursts
system.mem_ctrl.perBankRdBursts::11              8169                       # Per bank write bursts
system.mem_ctrl.perBankRdBursts::12              8141                       # Per bank write bursts
system.mem_ctrl.perBankRdBursts::13              8198                       # Per bank write bursts
system.mem_ctrl.perBankRdBursts::14              8206                       # Per bank write bursts
system.mem_ctrl.perBankRdBursts::15              8227                       # Per bank write bursts
system.mem_ctrl.perBankWrBursts::0              16576                       # Per bank write bursts
system.mem_ctrl.perBankWrBursts::1               8350                       # Per bank write bursts
system.mem_ctrl.perBankWrBursts::2              11444                       # Per bank write bursts
system.mem_ctrl.perBankWrBursts::3               8068                       # Per bank write bursts
system.mem_ctrl.perBankWrBursts::4               8069                       # Per bank write bursts
system.mem_ctrl.perBankWrBursts::5               8003                       # Per bank write bursts
system.mem_ctrl.perBankWrBursts::6               8013                       # Per bank write bursts
system.mem_ctrl.perBankWrBursts::7               7899                       # Per bank write bursts
system.mem_ctrl.perBankWrBursts::8               8023                       # Per bank write bursts
system.mem_ctrl.perBankWrBursts::9               8299                       # Per bank write bursts
system.mem_ctrl.perBankWrBursts::10              8024                       # Per bank write bursts
system.mem_ctrl.perBankWrBursts::11              8289                       # Per bank write bursts
system.mem_ctrl.perBankWrBursts::12              8253                       # Per bank write bursts
system.mem_ctrl.perBankWrBursts::13              8323                       # Per bank write bursts
system.mem_ctrl.perBankWrBursts::14              8327                       # Per bank write bursts
system.mem_ctrl.perBankWrBursts::15              8355                       # Per bank write bursts
system.mem_ctrl.numRdRetry                          0                       # Number of times read queue was full causing retry
system.mem_ctrl.numWrRetry                          0                       # Number of times write queue was full causing retry
system.mem_ctrl.totGap                   828340618000                       # Total gap between requests
system.mem_ctrl.readPktSize::0                      0                       # Read request sizes (log2)
system.mem_ctrl.readPktSize::1                      0                       # Read request sizes (log2)
system.mem_ctrl.readPktSize::2                      0                       # Read request sizes (log2)
system.mem_ctrl.readPktSize::3                      0                       # Read request sizes (log2)
system.mem_ctrl.readPktSize::4                      0                       # Read request sizes (log2)
system.mem_ctrl.readPktSize::5                      0                       # Read request sizes (log2)
system.mem_ctrl.readPktSize::6               32718855                       # Read request sizes (log2)
system.mem_ctrl.writePktSize::0                     0                       # Write request sizes (log2)
system.mem_ctrl.writePktSize::1                     0                       # Write request sizes (log2)
system.mem_ctrl.writePktSize::2                     0                       # Write request sizes (log2)
system.mem_ctrl.writePktSize::3                     0                       # Write request sizes (log2)
system.mem_ctrl.writePktSize::4                     0                       # Write request sizes (log2)
system.mem_ctrl.writePktSize::5                     0                       # Write request sizes (log2)
system.mem_ctrl.writePktSize::6              32718343                       # Write request sizes (log2)
system.mem_ctrl.rdQLenPdf::0                   134606                       # What read queue length does an incoming req see
system.mem_ctrl.rdQLenPdf::1                        0                       # What read queue length does an incoming req see
system.mem_ctrl.rdQLenPdf::2                        0                       # What read queue length does an incoming req see
system.mem_ctrl.rdQLenPdf::3                        0                       # What read queue length does an incoming req see
system.mem_ctrl.rdQLenPdf::4                        0                       # What read queue length does an incoming req see
system.mem_ctrl.rdQLenPdf::5                        0                       # What read queue length does an incoming req see
system.mem_ctrl.rdQLenPdf::6                        0                       # What read queue length does an incoming req see
system.mem_ctrl.rdQLenPdf::7                        0                       # What read queue length does an incoming req see
system.mem_ctrl.rdQLenPdf::8                        0                       # What read queue length does an incoming req see
system.mem_ctrl.rdQLenPdf::9                        0                       # What read queue length does an incoming req see
system.mem_ctrl.rdQLenPdf::10                       0                       # What read queue length does an incoming req see
system.mem_ctrl.rdQLenPdf::11                       0                       # What read queue length does an incoming req see
system.mem_ctrl.rdQLenPdf::12                       0                       # What read queue length does an incoming req see
system.mem_ctrl.rdQLenPdf::13                       0                       # What read queue length does an incoming req see
system.mem_ctrl.rdQLenPdf::14                       0                       # What read queue length does an incoming req see
system.mem_ctrl.rdQLenPdf::15                       0                       # What read queue length does an incoming req see
system.mem_ctrl.rdQLenPdf::16                       0                       # What read queue length does an incoming req see
system.mem_ctrl.rdQLenPdf::17                       0                       # What read queue length does an incoming req see
system.mem_ctrl.rdQLenPdf::18                       0                       # What read queue length does an incoming req see
system.mem_ctrl.rdQLenPdf::19                       0                       # What read queue length does an incoming req see
system.mem_ctrl.rdQLenPdf::20                       0                       # What read queue length does an incoming req see
system.mem_ctrl.rdQLenPdf::21                       0                       # What read queue length does an incoming req see
system.mem_ctrl.rdQLenPdf::22                       0                       # What read queue length does an incoming req see
system.mem_ctrl.rdQLenPdf::23                       0                       # What read queue length does an incoming req see
system.mem_ctrl.rdQLenPdf::24                       0                       # What read queue length does an incoming req see
system.mem_ctrl.rdQLenPdf::25                       0                       # What read queue length does an incoming req see
system.mem_ctrl.rdQLenPdf::26                       0                       # What read queue length does an incoming req see
system.mem_ctrl.rdQLenPdf::27                       0                       # What read queue length does an incoming req see
system.mem_ctrl.rdQLenPdf::28                       0                       # What read queue length does an incoming req see
system.mem_ctrl.rdQLenPdf::29                       0                       # What read queue length does an incoming req see
system.mem_ctrl.rdQLenPdf::30                       0                       # What read queue length does an incoming req see
system.mem_ctrl.rdQLenPdf::31                       0                       # What read queue length does an incoming req see
system.mem_ctrl.wrQLenPdf::0                        1                       # What write queue length does an incoming req see
system.mem_ctrl.wrQLenPdf::1                        1                       # What write queue length does an incoming req see
system.mem_ctrl.wrQLenPdf::2                        1                       # What write queue length does an incoming req see
system.mem_ctrl.wrQLenPdf::3                        1                       # What write queue length does an incoming req see
system.mem_ctrl.wrQLenPdf::4                        1                       # What write queue length does an incoming req see
system.mem_ctrl.wrQLenPdf::5                        1                       # What write queue length does an incoming req see
system.mem_ctrl.wrQLenPdf::6                        1                       # What write queue length does an incoming req see
system.mem_ctrl.wrQLenPdf::7                        1                       # What write queue length does an incoming req see
system.mem_ctrl.wrQLenPdf::8                        1                       # What write queue length does an incoming req see
system.mem_ctrl.wrQLenPdf::9                        1                       # What write queue length does an incoming req see
system.mem_ctrl.wrQLenPdf::10                       1                       # What write queue length does an incoming req see
system.mem_ctrl.wrQLenPdf::11                       1                       # What write queue length does an incoming req see
system.mem_ctrl.wrQLenPdf::12                       1                       # What write queue length does an incoming req see
system.mem_ctrl.wrQLenPdf::13                       1                       # What write queue length does an incoming req see
system.mem_ctrl.wrQLenPdf::14                       1                       # What write queue length does an incoming req see
system.mem_ctrl.wrQLenPdf::15                    6184                       # What write queue length does an incoming req see
system.mem_ctrl.wrQLenPdf::16                    6953                       # What write queue length does an incoming req see
system.mem_ctrl.wrQLenPdf::17                    7911                       # What write queue length does an incoming req see
system.mem_ctrl.wrQLenPdf::18                    9389                       # What write queue length does an incoming req see
system.mem_ctrl.wrQLenPdf::19                    8086                       # What write queue length does an incoming req see
system.mem_ctrl.wrQLenPdf::20                    8044                       # What write queue length does an incoming req see
system.mem_ctrl.wrQLenPdf::21                    8000                       # What write queue length does an incoming req see
system.mem_ctrl.wrQLenPdf::22                    7983                       # What write queue length does an incoming req see
system.mem_ctrl.wrQLenPdf::23                    8050                       # What write queue length does an incoming req see
system.mem_ctrl.wrQLenPdf::24                    7977                       # What write queue length does an incoming req see
system.mem_ctrl.wrQLenPdf::25                    7975                       # What write queue length does an incoming req see
system.mem_ctrl.wrQLenPdf::26                    7969                       # What write queue length does an incoming req see
system.mem_ctrl.wrQLenPdf::27                    7967                       # What write queue length does an incoming req see
system.mem_ctrl.wrQLenPdf::28                    7966                       # What write queue length does an incoming req see
system.mem_ctrl.wrQLenPdf::29                    7968                       # What write queue length does an incoming req see
system.mem_ctrl.wrQLenPdf::30                    7966                       # What write queue length does an incoming req see
system.mem_ctrl.wrQLenPdf::31                    7966                       # What write queue length does an incoming req see
system.mem_ctrl.wrQLenPdf::32                    7966                       # What write queue length does an incoming req see
system.mem_ctrl.wrQLenPdf::33                       0                       # What write queue length does an incoming req see
system.mem_ctrl.wrQLenPdf::34                       0                       # What write queue length does an incoming req see
system.mem_ctrl.wrQLenPdf::35                       0                       # What write queue length does an incoming req see
system.mem_ctrl.wrQLenPdf::36                       0                       # What write queue length does an incoming req see
system.mem_ctrl.wrQLenPdf::37                       0                       # What write queue length does an incoming req see
system.mem_ctrl.wrQLenPdf::38                       0                       # What write queue length does an incoming req see
system.mem_ctrl.wrQLenPdf::39                       0                       # What write queue length does an incoming req see
system.mem_ctrl.wrQLenPdf::40                       0                       # What write queue length does an incoming req see
system.mem_ctrl.wrQLenPdf::41                       0                       # What write queue length does an incoming req see
system.mem_ctrl.wrQLenPdf::42                       0                       # What write queue length does an incoming req see
system.mem_ctrl.wrQLenPdf::43                       0                       # What write queue length does an incoming req see
system.mem_ctrl.wrQLenPdf::44                       0                       # What write queue length does an incoming req see
system.mem_ctrl.wrQLenPdf::45                       0                       # What write queue length does an incoming req see
system.mem_ctrl.wrQLenPdf::46                       0                       # What write queue length does an incoming req see
system.mem_ctrl.wrQLenPdf::47                       0                       # What write queue length does an incoming req see
system.mem_ctrl.wrQLenPdf::48                       0                       # What write queue length does an incoming req see
system.mem_ctrl.wrQLenPdf::49                       0                       # What write queue length does an incoming req see
system.mem_ctrl.wrQLenPdf::50                       0                       # What write queue length does an incoming req see
system.mem_ctrl.wrQLenPdf::51                       0                       # What write queue length does an incoming req see
system.mem_ctrl.wrQLenPdf::52                       0                       # What write queue length does an incoming req see
system.mem_ctrl.wrQLenPdf::53                       0                       # What write queue length does an incoming req see
system.mem_ctrl.wrQLenPdf::54                       0                       # What write queue length does an incoming req see
system.mem_ctrl.wrQLenPdf::55                       0                       # What write queue length does an incoming req see
system.mem_ctrl.wrQLenPdf::56                       0                       # What write queue length does an incoming req see
system.mem_ctrl.wrQLenPdf::57                       0                       # What write queue length does an incoming req see
system.mem_ctrl.wrQLenPdf::58                       0                       # What write queue length does an incoming req see
system.mem_ctrl.wrQLenPdf::59                       0                       # What write queue length does an incoming req see
system.mem_ctrl.wrQLenPdf::60                       0                       # What write queue length does an incoming req see
system.mem_ctrl.wrQLenPdf::61                       0                       # What write queue length does an incoming req see
system.mem_ctrl.wrQLenPdf::62                       0                       # What write queue length does an incoming req see
system.mem_ctrl.wrQLenPdf::63                       0                       # What write queue length does an incoming req see
system.mem_ctrl.bytesPerActivate::samples       116928                       # Bytes accessed per row activation
system.mem_ctrl.bytesPerActivate::mean     151.558292                       # Bytes accessed per row activation
system.mem_ctrl.bytesPerActivate::gmean     96.205012                       # Bytes accessed per row activation
system.mem_ctrl.bytesPerActivate::stdev    233.543738                       # Bytes accessed per row activation
system.mem_ctrl.bytesPerActivate::0-127         78460     67.10%     67.10% # Bytes accessed per row activation
system.mem_ctrl.bytesPerActivate::128-255        26787     22.91%     90.01% # Bytes accessed per row activation
system.mem_ctrl.bytesPerActivate::256-383         3013      2.58%     92.59% # Bytes accessed per row activation
system.mem_ctrl.bytesPerActivate::384-511          469      0.40%     92.99% # Bytes accessed per row activation
system.mem_ctrl.bytesPerActivate::512-639          311      0.27%     93.25% # Bytes accessed per row activation
system.mem_ctrl.bytesPerActivate::640-767          344      0.29%     93.55% # Bytes accessed per row activation
system.mem_ctrl.bytesPerActivate::768-895          347      0.30%     93.84% # Bytes accessed per row activation
system.mem_ctrl.bytesPerActivate::896-1023          650      0.56%     94.40% # Bytes accessed per row activation
system.mem_ctrl.bytesPerActivate::1024-1151         6547      5.60%    100.00% # Bytes accessed per row activation
system.mem_ctrl.bytesPerActivate::total        116928                       # Bytes accessed per row activation
system.mem_ctrl.rdPerTurnAround::samples         7966                       # Reads before turning the bus around for writes
system.mem_ctrl.rdPerTurnAround::mean       16.897314                       # Reads before turning the bus around for writes
system.mem_ctrl.rdPerTurnAround::gmean      16.800085                       # Reads before turning the bus around for writes
system.mem_ctrl.rdPerTurnAround::stdev       6.022536                       # Reads before turning the bus around for writes
system.mem_ctrl.rdPerTurnAround::0-31            7965     99.99%     99.99% # Reads before turning the bus around for writes
system.mem_ctrl.rdPerTurnAround::544-575            1      0.01%    100.00% # Reads before turning the bus around for writes
system.mem_ctrl.rdPerTurnAround::total           7966                       # Reads before turning the bus around for writes
system.mem_ctrl.wrPerTurnAround::samples         7966                       # Writes before turning the bus around for reads
system.mem_ctrl.wrPerTurnAround::mean       17.865303                       # Writes before turning the bus around for reads
system.mem_ctrl.wrPerTurnAround::gmean      17.851714                       # Writes before turning the bus around for reads
system.mem_ctrl.wrPerTurnAround::stdev       0.689666                       # Writes before turning the bus around for reads
system.mem_ctrl.wrPerTurnAround::16               432      5.42%      5.42% # Writes before turning the bus around for reads
system.mem_ctrl.wrPerTurnAround::17              1158     14.54%     19.96% # Writes before turning the bus around for reads
system.mem_ctrl.wrPerTurnAround::18              5471     68.68%     88.64% # Writes before turning the bus around for reads
system.mem_ctrl.wrPerTurnAround::19               866     10.87%     99.51% # Writes before turning the bus around for reads
system.mem_ctrl.wrPerTurnAround::20                34      0.43%     99.94% # Writes before turning the bus around for reads
system.mem_ctrl.wrPerTurnAround::21                 5      0.06%    100.00% # Writes before turning the bus around for reads
system.mem_ctrl.wrPerTurnAround::total           7966                       # Writes before turning the bus around for reads
system.mem_ctrl.totQLat                    6247381250                       # Total ticks spent queuing
system.mem_ctrl.totMemAccLat               8771243750                       # Total ticks spent from burst creation until serviced by the DRAM
system.mem_ctrl.totBusLat                   673030000                       # Total ticks spent in databus transfers
system.mem_ctrl.avgQLat                      46412.35                       # Average queueing delay per DRAM burst
system.mem_ctrl.avgBusLat                     5000.00                       # Average bus latency per DRAM burst
system.mem_ctrl.avgMemAccLat                 65162.35                       # Average memory access latency per DRAM burst
system.mem_ctrl.avgRdBW                         10.40                       # Average DRAM read bandwidth in MiByte/s
system.mem_ctrl.avgWrBW                         11.00                       # Average achieved write bandwidth in MiByte/s
system.mem_ctrl.avgRdBWSys                    2527.95                       # Average system read bandwidth in MiByte/s
system.mem_ctrl.avgWrBWSys                    2527.91                       # Average system write bandwidth in MiByte/s
system.mem_ctrl.peakBW                       12800.00                       # Theoretical peak bandwidth in MiByte/s
system.mem_ctrl.busUtil                          0.17                       # Data bus utilization in percentage
system.mem_ctrl.busUtilRead                      0.08                       # Data bus utilization in percentage for reads
system.mem_ctrl.busUtilWrite                     0.09                       # Data bus utilization in percentage for writes
system.mem_ctrl.avgRdQLen                        1.00                       # Average read queue length when enqueuing
system.mem_ctrl.avgWrQLen                       24.74                       # Average write queue length when enqueuing
system.mem_ctrl.readRowHits                     31658                       # Number of row buffer hits during reads
system.mem_ctrl.writeRowHits                   128329                       # Number of row buffer hits during writes
system.mem_ctrl.readRowHitRate                  23.52                       # Row buffer hit rate for reads
system.mem_ctrl.writeRowHitRate                 90.16                       # Row buffer hit rate for writes
system.mem_ctrl.avgGap                       12658.56                       # Average gap between requests
system.mem_ctrl.pageHitRate                     57.77                       # Row buffer hit rate, read and write combined
system.mem_ctrl_0.actEnergy                 436718100                       # Energy for activate commands per rank (pJ)
system.mem_ctrl_0.preEnergy                 232109790                       # Energy for precharge commands per rank (pJ)
system.mem_ctrl_0.readEnergy                497465220                       # Energy for read commands per rank (pJ)
system.mem_ctrl_0.writeEnergy               398922840                       # Energy for write commands per rank (pJ)
system.mem_ctrl_0.refreshEnergy          38716173600.000008                       # Energy for refresh commands per rank (pJ)
system.mem_ctrl_0.actBackEnergy           10653651690                       # Energy for active background per rank (pJ)
system.mem_ctrl_0.preBackEnergy            1305756000                       # Energy for precharge background per rank (pJ)
system.mem_ctrl_0.actPowerDownEnergy     102208429950                       # Energy for active power-down per rank (pJ)
system.mem_ctrl_0.prePowerDownEnergy      74611419360                       # Energy for precharge power-down per rank (pJ)
system.mem_ctrl_0.selfRefreshEnergy       95433761400                       # Energy for self refresh per rank (pJ)
system.mem_ctrl_0.totalEnergy            324566742480                       # Total energy per rank (pJ)
system.mem_ctrl_0.averagePower             391.827629                       # Core power per rank (mW)
system.mem_ctrl_0.totalIdleTime          801414371000                       # Total Idle time Per DRAM Rank
system.mem_ctrl_0.memoryStateTime::IDLE    1963519000                       # Time in different power states
system.mem_ctrl_0.memoryStateTime::REF    16415488000                       # Time in different power states
system.mem_ctrl_0.memoryStateTime::SREF  382972902500                       # Time in different power states
system.mem_ctrl_0.memoryStateTime::PRE_PDN 194301876000                       # Time in different power states
system.mem_ctrl_0.memoryStateTime::ACT     8547031250                       # Time in different power states
system.mem_ctrl_0.memoryStateTime::ACT_PDN 224139805250                       # Time in different power states
system.mem_ctrl_1.actEnergy                 398190660                       # Energy for activate commands per rank (pJ)
system.mem_ctrl_1.preEnergy                 211631970                       # Energy for precharge commands per rank (pJ)
system.mem_ctrl_1.readEnergy                463621620                       # Energy for read commands per rank (pJ)
system.mem_ctrl_1.writeEnergy               343961460                       # Energy for write commands per rank (pJ)
system.mem_ctrl_1.refreshEnergy          39694680480.000008                       # Energy for refresh commands per rank (pJ)
system.mem_ctrl_1.actBackEnergy           12417702510                       # Energy for active background per rank (pJ)
system.mem_ctrl_1.preBackEnergy            1372407360                       # Energy for precharge background per rank (pJ)
system.mem_ctrl_1.actPowerDownEnergy     100664284560                       # Energy for active power-down per rank (pJ)
system.mem_ctrl_1.prePowerDownEnergy      76892081280                       # Energy for precharge power-down per rank (pJ)
system.mem_ctrl_1.selfRefreshEnergy       94301716800                       # Energy for self refresh per rank (pJ)
system.mem_ctrl_1.totalEnergy            326878848870                       # Total energy per rank (pJ)
system.mem_ctrl_1.averagePower             394.618880                       # Core power per rank (mW)
system.mem_ctrl_1.totalIdleTime          797269974500                       # Total Idle time Per DRAM Rank
system.mem_ctrl_1.memoryStateTime::IDLE    2177082000                       # Time in different power states
system.mem_ctrl_1.memoryStateTime::REF    16833500000                       # Time in different power states
system.mem_ctrl_1.memoryStateTime::SREF  376275271000                       # Time in different power states
system.mem_ctrl_1.memoryStateTime::PRE_PDN 200240422000                       # Time in different power states
system.mem_ctrl_1.memoryStateTime::ACT    12059907250                       # Time in different power states
system.mem_ctrl_1.memoryStateTime::ACT_PDN 220754439750                       # Time in different power states
system.pwrStateResidencyTicks::UNDEFINED 828340622000                       # Cumulative time (in ticks) in various power states
system.cache.pwrStateResidencyTicks::UNDEFINED 828340622000                       # Cumulative time (in ticks) in various power states
system.cache.hits                            25294334                       # Number of hits
system.cache.misses                          32718855                       # Number of misses
system.cache.missLatency::samples            32718855                       # Ticks for misses to the cache
system.cache.missLatency::mean           23543.838346                       # Ticks for misses to the cache
system.cache.missLatency::gmean          23313.278359                       # Ticks for misses to the cache
system.cache.missLatency::stdev           8559.991556                       # Ticks for misses to the cache
system.cache.missLatency::0-65535            32613492     99.68%     99.68% # Ticks for misses to the cache
system.cache.missLatency::65536-131071          93428      0.29%     99.96% # Ticks for misses to the cache
system.cache.missLatency::131072-196607          1725      0.01%     99.97% # Ticks for misses to the cache
system.cache.missLatency::196608-262143          3914      0.01%     99.98% # Ticks for misses to the cache
system.cache.missLatency::262144-327679           298      0.00%     99.98% # Ticks for misses to the cache
system.cache.missLatency::327680-393215           353      0.00%     99.98% # Ticks for misses to the cache
system.cache.missLatency::393216-458751            14      0.00%     99.98% # Ticks for misses to the cache
system.cache.missLatency::458752-524287           135      0.00%     99.98% # Ticks for misses to the cache
system.cache.missLatency::524288-589823           160      0.00%     99.98% # Ticks for misses to the cache
system.cache.missLatency::589824-655359          5330      0.02%    100.00% # Ticks for misses to the cache
system.cache.missLatency::655360-720895             1      0.00%    100.00% # Ticks for misses to the cache
system.cache.missLatency::720896-786431             5      0.00%    100.00% # Ticks for misses to the cache
system.cache.missLatency::786432-851967             0      0.00%    100.00% # Ticks for misses to the cache
system.cache.missLatency::851968-917503             0      0.00%    100.00% # Ticks for misses to the cache
system.cache.missLatency::917504-983039             0      0.00%    100.00% # Ticks for misses to the cache
system.cache.missLatency::983040-1.04858e+06            0      0.00%    100.00% # Ticks for misses to the cache
system.cache.missLatency::total              32718855                       # Ticks for misses to the cache
system.cache.hitRatio                        0.436010                       # The ratio of hits to the total accesses to the cache
system.cpu.dtb.fetch_hits                           0                       # ITB hits
system.cpu.dtb.fetch_misses                         0                       # ITB misses
system.cpu.dtb.fetch_acv                            0                       # ITB acv
system.cpu.dtb.fetch_accesses                       0                       # ITB accesses
system.cpu.dtb.read_hits                     10001315                       # DTB read hits
system.cpu.dtb.read_misses                        516                       # DTB read misses
system.cpu.dtb.read_acv                             0                       # DTB read access violations
system.cpu.dtb.read_accesses                 10001831                       # DTB read accesses
system.cpu.dtb.write_hits                     4001460                       # DTB write hits
system.cpu.dtb.write_misses                       915                       # DTB write misses
system.cpu.dtb.write_acv                            0                       # DTB write access violations
system.cpu.dtb.write_accesses                 4002375                       # DTB write accesses
system.cpu.dtb.data_hits                     14002775                       # DTB hits
system.cpu.dtb.data_misses                       1431                       # DTB misses
system.cpu.dtb.data_acv                             0                       # DTB access violations
system.cpu.dtb.data_accesses                 14004206                       # DTB accesses
system.cpu.itb.fetch_hits                    44010415                       # ITB hits
system.cpu.itb.fetch_misses                        19                       # ITB misses
system.cpu.itb.fetch_acv                            0                       # ITB acv
system.cpu.itb.fetch_accesses                44010434                       # ITB accesses
system.cpu.itb.read_hits                            0                       # DTB read hits
system.cpu.itb.read_misses                          0                       # DTB read misses
system.cpu.itb.read_acv                             0                       # DTB read access violations
system.cpu.itb.read_accesses                        0                       # DTB read accesses
system.cpu.itb.write_hits                           0                       # DTB write hits
system.cpu.itb.write_misses                         0                       # DTB write misses
system.cpu.itb.write_acv                            0                       # DTB write access violations
system.cpu.itb.write_accesses                       0                       # DTB write accesses
system.cpu.itb.data_hits                            0                       # DTB hits
system.cpu.itb.data_misses                          0                       # DTB misses
system.cpu.itb.data_acv                             0                       # DTB access violations
system.cpu.itb.data_accesses                        0                       # DTB accesses
system.cpu.workload.numSyscalls                    10                       # Number of system calls
system.cpu.pwrStateResidencyTicks::ON    828340622000                       # Cumulative time (in ticks) in various power states
system.cpu.numCycles                        828340622                       # number of cpu cycles simulated
system.cpu.numWorkItemsStarted                      0                       # number of work items this cpu started
system.cpu.numWorkItemsCompleted                    0                       # number of work items this cpu completed
system.cpu.committedInsts                    44008983                       # Number of instructions committed
system.cpu.committedOps                      44008983                       # Number of ops (including micro ops) committed
system.cpu.num_int_alu_accesses              42010330                       # Number of integer alu accesses
system.cpu.num_fp_alu_accesses                     16                       # Number of float alu accesses
system.cpu.num_vec_alu_accesses                     0                       # Number of vector alu accesses
system.cpu.num_func_calls                         231                       # number of times a function call or return occured
system.cpu.num_conditional_control_insts      2001276                       # number of instructions that are conditional controls
system.cpu.num_int_insts                     42010330                       # number of integer instructions
system.cpu.num_fp_insts                            16                       # number of float instructions
system.cpu.num_vec_insts                            0                       # number of vector instructions
system.cpu.num_int_register_reads            53014129                       # number of times the integer registers were read
system.cpu.num_int_register_writes           36006038                       # number of times the integer registers were written
system.cpu.num_fp_register_reads                   14                       # number of times the floating registers were read
system.cpu.num_fp_register_writes                   2                       # number of times the floating registers were written
system.cpu.num_vec_register_reads                   0                       # number of times the vector registers were read
system.cpu.num_vec_register_writes                  0                       # number of times the vector registers were written
system.cpu.num_mem_refs                      14004206                       # number of memory refs
system.cpu.num_load_insts                    10001831                       # Number of load instructions
system.cpu.num_store_insts                    4002375                       # Number of store instructions
system.cpu.num_idle_cycles                          0                       # Number of idle cycles
system.cpu.num_busy_cycles                  828340622                       # Number of busy cycles
system.cpu.not_idle_fraction                        1                       # Percentage of non-idle cycles
system.cpu.idle_fraction                            0                       # Percentage of idle cycles
system.cpu.Branches                           4001572                       # Number of branches fetched
system.cpu.op_class::No_OpClass                    22      0.00%      0.00% # Class of executed instruction
system.cpu.op_class::IntAlu                  30006176     68.18%     68.18% # Class of executed instruction
system.cpu.op_class::IntMult                        8      0.00%     68.18% # Class of executed instruction
system.cpu.op_class::IntDiv                         0      0.00%     68.18% # Class of executed instruction
system.cpu.op_class::FloatAdd                       2      0.00%     68.18% # Class of executed instruction
system.cpu.op_class::FloatCmp                       0      0.00%     68.18% # Class of executed instruction
system.cpu.op_class::FloatCvt                       0      0.00%     68.18% # Class of executed instruction
system.cpu.op_class::FloatMult                      0      0.00%     68.18% # Class of executed instruction
system.cpu.op_class::FloatMultAcc                   0      0.00%     68.18% # Class of executed instruction
system.cpu.op_class::FloatDiv                       0      0.00%     68.18% # Class of executed instruction
system.cpu.op_class::FloatMisc                      0      0.00%     68.18% # Class of executed instruction
system.cpu.op_class::FloatSqrt                      0      0.00%     68.18% # Class of executed instruction
system.cpu.op_class::SimdAdd                        0      0.00%     68.18% # Class of executed instruction
system.cpu.op_class::SimdAddAcc                     0      0.00%     68.18% # Class of executed instruction
system.cpu.op_class::SimdAlu                        0      0.00%     68.18% # Class of executed instruction
system.cpu.op_class::SimdCmp                        0      0.00%     68.18% # Class of executed instruction
system.cpu.op_class::SimdCvt                        0      0.00%     68.18% # Class of executed instruction
system.cpu.op_class::SimdMisc                       0      0.00%     68.18% # Class of executed instruction
system.cpu.op_class::SimdMult                       0      0.00%     68.18% # Class of executed instruction
system.cpu.op_class::SimdMultAcc                    0      0.00%     68.18% # Class of executed instruction
system.cpu.op_class::SimdShift                      0      0.00%     68.18% # Class of executed instruction
system.cpu.op_class::SimdShiftAcc                   0      0.00%     68.18% # Class of executed instruction
system.cpu.op_class::SimdSqrt                       0      0.00%     68.18% # Class of executed instruction
system.cpu.op_class::SimdFloatAdd                   0      0.00%     68.18% # Class of executed instruction
system.cpu.op_class::SimdFloatAlu                   0      0.00%     68.18% # Class of executed instruction
system.cpu.op_class::SimdFloatCmp                   0      0.00%     68.18% # Class of executed instruction
system.cpu.op_class::SimdFloatCvt                   0      0.00%     68.18% # Class of executed instruction
system.cpu.op_class::SimdFloatDiv                   0      0.00%     68.18% # Class of executed instruction
system.cpu.op_class::SimdFloatMisc                  0      0.00%     68.18% # Class of executed instruction
system.cpu.op_class::SimdFloatMult                  0      0.00%     68.18% # Class of executed instruction
system.cpu.op_class::SimdFloatMultAcc               0      0.00%     68.18% # Class of executed instruction
system.cpu.op_class::SimdFloatSqrt                  0      0.00%     68.18% # Class of executed instruction
system.cpu.op_class::MemRead                 10001830     22.73%     90.91% # Class of executed instruction
system.cpu.op_class::MemWrite                 4002362      9.09%    100.00% # Class of executed instruction
system.cpu.op_class::FloatMemRead                   1      0.00%    100.00% # Class of executed instruction
system.cpu.op_class::FloatMemWrite                 13      0.00%    100.00% # Class of executed instruction
system.cpu.op_class::IprAccess                      0      0.00%    100.00% # Class of executed instruction
system.cpu.op_class::InstPrefetch                   0      0.00%    100.00% # Class of executed instruction
system.cpu.op_class::total                   44010414                       # Class of executed instruction
system.membus.snoop_filter.tot_requests             0                       # Total number of requests made to the snoop filter.
system.membus.snoop_filter.hit_single_requests            0                       # Number of requests hitting in the snoop filter with a single holder of the requested data.
system.membus.snoop_filter.hit_multi_requests            0                       # Number of requests hitting in the snoop filter with multiple (>1) holders of the requested data.
system.membus.snoop_filter.tot_snoops               0                       # Total number of snoops made to the snoop filter.
system.membus.snoop_filter.hit_single_snoops            0                       # Number of snoops hitting in the snoop filter with a single holder of the requested data.
system.membus.snoop_filter.hit_multi_snoops            0                       # Number of snoops hitting in the snoop filter with multiple (>1) holders of the requested data.
system.membus.pwrStateResidencyTicks::UNDEFINED 828340622000                       # Cumulative time (in ticks) in various power states
system.membus.trans_dist::ReadReq            32718855                       # Transaction distribution
system.membus.trans_dist::ReadResp           32718855                       # Transaction distribution
system.membus.trans_dist::WritebackDirty     32718343                       # Transaction distribution
system.membus.pkt_count_system.cache.mem_side::system.mem_ctrl.port     98156053                       # Packet count per connected master and slave (bytes)
system.membus.pkt_count::total               98156053                       # Packet count per connected master and slave (bytes)
system.membus.pkt_size_system.cache.mem_side::system.mem_ctrl.port   4187980672                       # Cumulative packet size per connected master and slave (bytes)
system.membus.pkt_size::total              4187980672                       # Cumulative packet size per connected master and slave (bytes)
system.membus.snoops                                0                       # Total snoops (count)
system.membus.snoopTraffic                          0                       # Total snoop traffic (bytes)
system.membus.snoop_fanout::samples          32718855                       # Request fanout histogram
system.membus.snoop_fanout::mean                    0                       # Request fanout histogram
system.membus.snoop_fanout::stdev                   0                       # Request fanout histogram
system.membus.snoop_fanout::underflows              0      0.00%      0.00% # Request fanout histogram
system.membus.snoop_fanout::0                32718855    100.00%    100.00% # Request fanout histogram
system.membus.snoop_fanout::overflows               0      0.00%    100.00% # Request fanout histogram
system.membus.snoop_fanout::min_value               0                       # Request fanout histogram
system.membus.snoop_fanout::max_value               0                       # Request fanout histogram
system.membus.snoop_fanout::total            32718855                       # Request fanout histogram
system.membus.reqLayer0.occupancy        196310570000                       # Layer occupancy (ticks)
system.membus.reqLayer0.utilization              23.7                       # Layer utilization (%)
system.membus.respLayer0.occupancy       163653094250                       # Layer occupancy (ticks)
system.membus.respLayer0.utilization             19.8                       # Layer utilization (%)

---------- End Simulation Statistics   ----------
