
---------- Begin Simulation Statistics ----------
sim_seconds                                  0.000049                       # Number of seconds simulated
sim_ticks                                    48991000                       # Number of ticks simulated
final_tick                                   48991000                       # Number of ticks from beginning of simulation (restored from checkpoints and never reset)
sim_freq                                 1000000000000                       # Frequency of simulated ticks
host_inst_rate                                 785057                       # Simulator instruction rate (inst/s)
host_op_rate                                   783687                       # Simulator op (including micro ops) rate (op/s)
host_tick_rate                             3710877140                       # Simulator tick rate (ticks/s)
host_mem_usage                                8485368                       # Number of bytes of host memory used
host_seconds                                     0.01                       # Real time elapsed on the host
sim_insts                                       10329                       # Number of instructions simulated
sim_ops                                         10329                       # Number of ops (including micro ops) simulated
system.clk_domain.voltage_domain.voltage            1                       # Voltage in Volts
system.clk_domain.clock                          1000                       # Clock period in ticks
system.mem_ctrl.pwrStateResidencyTicks::UNDEFINED     48991000                       # Cumulative time (in ticks) in various power states
system.mem_ctrl.bytes_read::cpu.inst            23040                       # Number of bytes read from this memory
system.mem_ctrl.bytes_read::cpu.data            13760                       # Number of bytes read from this memory
system.mem_ctrl.bytes_read::total               36800                       # Number of bytes read from this memory
system.mem_ctrl.bytes_inst_read::cpu.inst        23040                       # Number of instructions bytes read from this memory
system.mem_ctrl.bytes_inst_read::total          23040                       # Number of instructions bytes read from this memory
system.mem_ctrl.bytes_written::writebacks         4032                       # Number of bytes written to this memory
system.mem_ctrl.bytes_written::total             4032                       # Number of bytes written to this memory
system.mem_ctrl.num_reads::cpu.inst               360                       # Number of read requests responded to by this memory
system.mem_ctrl.num_reads::cpu.data               215                       # Number of read requests responded to by this memory
system.mem_ctrl.num_reads::total                  575                       # Number of read requests responded to by this memory
system.mem_ctrl.num_writes::writebacks             63                       # Number of write requests responded to by this memory
system.mem_ctrl.num_writes::total                  63                       # Number of write requests responded to by this memory
system.mem_ctrl.bw_read::cpu.inst           470290462                       # Total read bandwidth from this memory (bytes/s)
system.mem_ctrl.bw_read::cpu.data           280867915                       # Total read bandwidth from this memory (bytes/s)
system.mem_ctrl.bw_read::total              751158376                       # Total read bandwidth from this memory (bytes/s)
system.mem_ctrl.bw_inst_read::cpu.inst      470290462                       # Instruction read bandwidth from this memory (bytes/s)
system.mem_ctrl.bw_inst_read::total         470290462                       # Instruction read bandwidth from this memory (bytes/s)
system.mem_ctrl.bw_write::writebacks         82300831                       # Write bandwidth from this memory (bytes/s)
system.mem_ctrl.bw_write::total              82300831                       # Write bandwidth from this memory (bytes/s)
system.mem_ctrl.bw_total::writebacks         82300831                       # Total bandwidth to/from this memory (bytes/s)
system.mem_ctrl.bw_total::cpu.inst          470290462                       # Total bandwidth to/from this memory (bytes/s)
system.mem_ctrl.bw_total::cpu.data          280867915                       # Total bandwidth to/from this memory (bytes/s)
system.mem_ctrl.bw_total::total             833459207                       # Total bandwidth to/from this memory (bytes/s)
system.mem_ctrl.readReqs                          575                       # Number of read requests accepted
system.mem_ctrl.writeReqs                          63                       # Number of write requests accepted
system.mem_ctrl.readBursts                        575                       # Number of DRAM read bursts, including those serviced by the write queue
system.mem_ctrl.writeBursts                        63                       # Number of DRAM write bursts, including those merged in the write queue
system.mem_ctrl.bytesReadDRAM                   36544                       # Total number of bytes read from DRAM
system.mem_ctrl.bytesReadWrQ                      256                       # Total number of bytes read from write queue
system.mem_ctrl.bytesWritten                     2048                       # Total number of bytes written to DRAM
system.mem_ctrl.bytesReadSys                    36800                       # Total read bytes from the system interface side
system.mem_ctrl.bytesWrittenSys                  4032                       # Total written bytes from the system interface side
system.mem_ctrl.servicedByWrQ                       4                       # Number of DRAM read bursts serviced by the write queue
system.mem_ctrl.mergedWrBursts                      4                       # Number of DRAM write bursts merged with an existing one
system.mem_ctrl.neitherReadNorWriteReqs             0                       # Number of requests that are neither read nor write
system.mem_ctrl.perBankRdBursts::0                 61                       # Per bank write bursts
system.mem_ctrl.perBankRdBursts::1                  0                       # Per bank write bursts
system.mem_ctrl.perBankRdBursts::2                 56                       # Per bank write bursts
system.mem_ctrl.perBankRdBursts::3                 70                       # Per bank write bursts
system.mem_ctrl.perBankRdBursts::4                 38                       # Per bank write bursts
system.mem_ctrl.perBankRdBursts::5                 29                       # Per bank write bursts
system.mem_ctrl.perBankRdBursts::6                 48                       # Per bank write bursts
system.mem_ctrl.perBankRdBursts::7                 40                       # Per bank write bursts
system.mem_ctrl.perBankRdBursts::8                 34                       # Per bank write bursts
system.mem_ctrl.perBankRdBursts::9                 40                       # Per bank write bursts
system.mem_ctrl.perBankRdBursts::10                44                       # Per bank write bursts
system.mem_ctrl.perBankRdBursts::11                20                       # Per bank write bursts
system.mem_ctrl.perBankRdBursts::12                11                       # Per bank write bursts
system.mem_ctrl.perBankRdBursts::13                13                       # Per bank write bursts
system.mem_ctrl.perBankRdBursts::14                40                       # Per bank write bursts
system.mem_ctrl.perBankRdBursts::15                27                       # Per bank write bursts
system.mem_ctrl.perBankWrBursts::0                  4                       # Per bank write bursts
system.mem_ctrl.perBankWrBursts::1                  0                       # Per bank write bursts
system.mem_ctrl.perBankWrBursts::2                  4                       # Per bank write bursts
system.mem_ctrl.perBankWrBursts::3                  5                       # Per bank write bursts
system.mem_ctrl.perBankWrBursts::4                  0                       # Per bank write bursts
system.mem_ctrl.perBankWrBursts::5                  1                       # Per bank write bursts
system.mem_ctrl.perBankWrBursts::6                  0                       # Per bank write bursts
system.mem_ctrl.perBankWrBursts::7                  2                       # Per bank write bursts
system.mem_ctrl.perBankWrBursts::8                  3                       # Per bank write bursts
system.mem_ctrl.perBankWrBursts::9                  2                       # Per bank write bursts
system.mem_ctrl.perBankWrBursts::10                 5                       # Per bank write bursts
system.mem_ctrl.perBankWrBursts::11                 0                       # Per bank write bursts
system.mem_ctrl.perBankWrBursts::12                 1                       # Per bank write bursts
system.mem_ctrl.perBankWrBursts::13                 1                       # Per bank write bursts
system.mem_ctrl.perBankWrBursts::14                 2                       # Per bank write bursts
system.mem_ctrl.perBankWrBursts::15                 2                       # Per bank write bursts
system.mem_ctrl.numRdRetry                          0                       # Number of times read queue was full causing retry
system.mem_ctrl.numWrRetry                          0                       # Number of times write queue was full causing retry
system.mem_ctrl.totGap                       48978000                       # Total gap between requests
system.mem_ctrl.readPktSize::0                      0                       # Read request sizes (log2)
system.mem_ctrl.readPktSize::1                      0                       # Read request sizes (log2)
system.mem_ctrl.readPktSize::2                      0                       # Read request sizes (log2)
system.mem_ctrl.readPktSize::3                      0                       # Read request sizes (log2)
system.mem_ctrl.readPktSize::4                      0                       # Read request sizes (log2)
system.mem_ctrl.readPktSize::5                      0                       # Read request sizes (log2)
system.mem_ctrl.readPktSize::6                    575                       # Read request sizes (log2)
system.mem_ctrl.writePktSize::0                     0                       # Write request sizes (log2)
system.mem_ctrl.writePktSize::1                     0                       # Write request sizes (log2)
system.mem_ctrl.writePktSize::2                     0                       # Write request sizes (log2)
system.mem_ctrl.writePktSize::3                     0                       # Write request sizes (log2)
system.mem_ctrl.writePktSize::4                     0                       # Write request sizes (log2)
system.mem_ctrl.writePktSize::5                     0                       # Write request sizes (log2)
system.mem_ctrl.writePktSize::6                    63                       # Write request sizes (log2)
system.mem_ctrl.rdQLenPdf::0                      571                       # What read queue length does an incoming req see
system.mem_ctrl.rdQLenPdf::1                        0                       # What read queue length does an incoming req see
system.mem_ctrl.rdQLenPdf::2                        0                       # What read queue length does an incoming req see
system.mem_ctrl.rdQLenPdf::3                        0                       # What read queue length does an incoming req see
system.mem_ctrl.rdQLenPdf::4                        0                       # What read queue length does an incoming req see
system.mem_ctrl.rdQLenPdf::5                        0                       # What read queue length does an incoming req see
system.mem_ctrl.rdQLenPdf::6                        0                       # What read queue length does an incoming req see
system.mem_ctrl.rdQLenPdf::7                        0                       # What read queue length does an incoming req see
system.mem_ctrl.rdQLenPdf::8                        0                       # What read queue length does an incoming req see
system.mem_ctrl.rdQLenPdf::9                        0                       # What read queue length does an incoming req see
system.mem_ctrl.rdQLenPdf::10                       0                       # What read queue length does an incoming req see
system.mem_ctrl.rdQLenPdf::11                       0                       # What read queue length does an incoming req see
system.mem_ctrl.rdQLenPdf::12                       0                       # What read queue length does an incoming req see
system.mem_ctrl.rdQLenPdf::13                       0                       # What read queue length does an incoming req see
system.mem_ctrl.rdQLenPdf::14                       0                       # What read queue length does an incoming req see
system.mem_ctrl.rdQLenPdf::15                       0                       # What read queue length does an incoming req see
system.mem_ctrl.rdQLenPdf::16                       0                       # What read queue length does an incoming req see
system.mem_ctrl.rdQLenPdf::17                       0                       # What read queue length does an incoming req see
system.mem_ctrl.rdQLenPdf::18                       0                       # What read queue length does an incoming req see
system.mem_ctrl.rdQLenPdf::19                       0                       # What read queue length does an incoming req see
system.mem_ctrl.rdQLenPdf::20                       0                       # What read queue length does an incoming req see
system.mem_ctrl.rdQLenPdf::21                       0                       # What read queue length does an incoming req see
system.mem_ctrl.rdQLenPdf::22                       0                       # What read queue length does an incoming req see
system.mem_ctrl.rdQLenPdf::23                       0                       # What read queue length does an incoming req see
system.mem_ctrl.rdQLenPdf::24                       0                       # What read queue length does an incoming req see
system.mem_ctrl.rdQLenPdf::25                       0                       # What read queue length does an incoming req see
system.mem_ctrl.rdQLenPdf::26                       0                       # What read queue length does an incoming req see
system.mem_ctrl.rdQLenPdf::27                       0                       # What read queue length does an incoming req see
system.mem_ctrl.rdQLenPdf::28                       0                       # What read queue length does an incoming req see
system.mem_ctrl.rdQLenPdf::29                       0                       # What read queue length does an incoming req see
system.mem_ctrl.rdQLenPdf::30                       0                       # What read queue length does an incoming req see
system.mem_ctrl.rdQLenPdf::31                       0                       # What read queue length does an incoming req see
system.mem_ctrl.wrQLenPdf::0                        1                       # What write queue length does an incoming req see
system.mem_ctrl.wrQLenPdf::1                        1                       # What write queue length does an incoming req see
system.mem_ctrl.wrQLenPdf::2                        1                       # What write queue length does an incoming req see
system.mem_ctrl.wrQLenPdf::3                        1                       # What write queue length does an incoming req see
system.mem_ctrl.wrQLenPdf::4                        1                       # What write queue length does an incoming req see
system.mem_ctrl.wrQLenPdf::5                        1                       # What write queue length does an incoming req see
system.mem_ctrl.wrQLenPdf::6                        1                       # What write queue length does an incoming req see
system.mem_ctrl.wrQLenPdf::7                        1                       # What write queue length does an incoming req see
system.mem_ctrl.wrQLenPdf::8                        1                       # What write queue length does an incoming req see
system.mem_ctrl.wrQLenPdf::9                        1                       # What write queue length does an incoming req see
system.mem_ctrl.wrQLenPdf::10                       1                       # What write queue length does an incoming req see
system.mem_ctrl.wrQLenPdf::11                       1                       # What write queue length does an incoming req see
system.mem_ctrl.wrQLenPdf::12                       1                       # What write queue length does an incoming req see
system.mem_ctrl.wrQLenPdf::13                       1                       # What write queue length does an incoming req see
system.mem_ctrl.wrQLenPdf::14                       1                       # What write queue length does an incoming req see
system.mem_ctrl.wrQLenPdf::15                       1                       # What write queue length does an incoming req see
system.mem_ctrl.wrQLenPdf::16                       1                       # What write queue length does an incoming req see
system.mem_ctrl.wrQLenPdf::17                       3                       # What write queue length does an incoming req see
system.mem_ctrl.wrQLenPdf::18                       3                       # What write queue length does an incoming req see
system.mem_ctrl.wrQLenPdf::19                       3                       # What write queue length does an incoming req see
system.mem_ctrl.wrQLenPdf::20                       3                       # What write queue length does an incoming req see
system.mem_ctrl.wrQLenPdf::21                       3                       # What write queue length does an incoming req see
system.mem_ctrl.wrQLenPdf::22                       3                       # What write queue length does an incoming req see
system.mem_ctrl.wrQLenPdf::23                       3                       # What write queue length does an incoming req see
system.mem_ctrl.wrQLenPdf::24                       3                       # What write queue length does an incoming req see
system.mem_ctrl.wrQLenPdf::25                       3                       # What write queue length does an incoming req see
system.mem_ctrl.wrQLenPdf::26                       3                       # What write queue length does an incoming req see
system.mem_ctrl.wrQLenPdf::27                       2                       # What write queue length does an incoming req see
system.mem_ctrl.wrQLenPdf::28                       2                       # What write queue length does an incoming req see
system.mem_ctrl.wrQLenPdf::29                       2                       # What write queue length does an incoming req see
system.mem_ctrl.wrQLenPdf::30                       2                       # What write queue length does an incoming req see
system.mem_ctrl.wrQLenPdf::31                       2                       # What write queue length does an incoming req see
system.mem_ctrl.wrQLenPdf::32                       2                       # What write queue length does an incoming req see
system.mem_ctrl.wrQLenPdf::33                       0                       # What write queue length does an incoming req see
system.mem_ctrl.wrQLenPdf::34                       0                       # What write queue length does an incoming req see
system.mem_ctrl.wrQLenPdf::35                       0                       # What write queue length does an incoming req see
system.mem_ctrl.wrQLenPdf::36                       0                       # What write queue length does an incoming req see
system.mem_ctrl.wrQLenPdf::37                       0                       # What write queue length does an incoming req see
system.mem_ctrl.wrQLenPdf::38                       0                       # What write queue length does an incoming req see
system.mem_ctrl.wrQLenPdf::39                       0                       # What write queue length does an incoming req see
system.mem_ctrl.wrQLenPdf::40                       0                       # What write queue length does an incoming req see
system.mem_ctrl.wrQLenPdf::41                       0                       # What write queue length does an incoming req see
system.mem_ctrl.wrQLenPdf::42                       0                       # What write queue length does an incoming req see
system.mem_ctrl.wrQLenPdf::43                       0                       # What write queue length does an incoming req see
system.mem_ctrl.wrQLenPdf::44                       0                       # What write queue length does an incoming req see
system.mem_ctrl.wrQLenPdf::45                       0                       # What write queue length does an incoming req see
system.mem_ctrl.wrQLenPdf::46                       0                       # What write queue length does an incoming req see
system.mem_ctrl.wrQLenPdf::47                       0                       # What write queue length does an incoming req see
system.mem_ctrl.wrQLenPdf::48                       0                       # What write queue length does an incoming req see
system.mem_ctrl.wrQLenPdf::49                       0                       # What write queue length does an incoming req see
system.mem_ctrl.wrQLenPdf::50                       0                       # What write queue length does an incoming req see
system.mem_ctrl.wrQLenPdf::51                       0                       # What write queue length does an incoming req see
system.mem_ctrl.wrQLenPdf::52                       0                       # What write queue length does an incoming req see
system.mem_ctrl.wrQLenPdf::53                       0                       # What write queue length does an incoming req see
system.mem_ctrl.wrQLenPdf::54                       0                       # What write queue length does an incoming req see
system.mem_ctrl.wrQLenPdf::55                       0                       # What write queue length does an incoming req see
system.mem_ctrl.wrQLenPdf::56                       0                       # What write queue length does an incoming req see
system.mem_ctrl.wrQLenPdf::57                       0                       # What write queue length does an incoming req see
system.mem_ctrl.wrQLenPdf::58                       0                       # What write queue length does an incoming req see
system.mem_ctrl.wrQLenPdf::59                       0                       # What write queue length does an incoming req see
system.mem_ctrl.wrQLenPdf::60                       0                       # What write queue length does an incoming req see
system.mem_ctrl.wrQLenPdf::61                       0                       # What write queue length does an incoming req see
system.mem_ctrl.wrQLenPdf::62                       0                       # What write queue length does an incoming req see
system.mem_ctrl.wrQLenPdf::63                       0                       # What write queue length does an incoming req see
system.mem_ctrl.bytesPerActivate::samples          120                       # Bytes accessed per row activation
system.mem_ctrl.bytesPerActivate::mean     309.866667                       # Bytes accessed per row activation
system.mem_ctrl.bytesPerActivate::gmean    207.903191                       # Bytes accessed per row activation
system.mem_ctrl.bytesPerActivate::stdev    280.138709                       # Bytes accessed per row activation
system.mem_ctrl.bytesPerActivate::0-127            31     25.83%     25.83% # Bytes accessed per row activation
system.mem_ctrl.bytesPerActivate::128-255           33     27.50%     53.33% # Bytes accessed per row activation
system.mem_ctrl.bytesPerActivate::256-383           18     15.00%     68.33% # Bytes accessed per row activation
system.mem_ctrl.bytesPerActivate::384-511           12     10.00%     78.33% # Bytes accessed per row activation
system.mem_ctrl.bytesPerActivate::512-639           10      8.33%     86.67% # Bytes accessed per row activation
system.mem_ctrl.bytesPerActivate::640-767            2      1.67%     88.33% # Bytes accessed per row activation
system.mem_ctrl.bytesPerActivate::768-895            5      4.17%     92.50% # Bytes accessed per row activation
system.mem_ctrl.bytesPerActivate::896-1023            1      0.83%     93.33% # Bytes accessed per row activation
system.mem_ctrl.bytesPerActivate::1024-1151            8      6.67%    100.00% # Bytes accessed per row activation
system.mem_ctrl.bytesPerActivate::total           120                       # Bytes accessed per row activation
system.mem_ctrl.rdPerTurnAround::samples            2                       # Reads before turning the bus around for writes
system.mem_ctrl.rdPerTurnAround::mean             280                       # Reads before turning the bus around for writes
system.mem_ctrl.rdPerTurnAround::gmean      90.415707                       # Reads before turning the bus around for writes
system.mem_ctrl.rdPerTurnAround::stdev     374.766594                       # Reads before turning the bus around for writes
system.mem_ctrl.rdPerTurnAround::0-31               1     50.00%     50.00% # Reads before turning the bus around for writes
system.mem_ctrl.rdPerTurnAround::544-575            1     50.00%    100.00% # Reads before turning the bus around for writes
system.mem_ctrl.rdPerTurnAround::total              2                       # Reads before turning the bus around for writes
system.mem_ctrl.wrPerTurnAround::samples            2                       # Writes before turning the bus around for reads
system.mem_ctrl.wrPerTurnAround::mean              16                       # Writes before turning the bus around for reads
system.mem_ctrl.wrPerTurnAround::gmean      16.000000                       # Writes before turning the bus around for reads
system.mem_ctrl.wrPerTurnAround::16                 2    100.00%    100.00% # Writes before turning the bus around for reads
system.mem_ctrl.wrPerTurnAround::total              2                       # Writes before turning the bus around for reads
system.mem_ctrl.totQLat                       7290250                       # Total ticks spent queuing
system.mem_ctrl.totMemAccLat                 17996500                       # Total ticks spent from burst creation until serviced by the DRAM
system.mem_ctrl.totBusLat                     2855000                       # Total ticks spent in databus transfers
system.mem_ctrl.avgQLat                      12767.51                       # Average queueing delay per DRAM burst
system.mem_ctrl.avgBusLat                     5000.00                       # Average bus latency per DRAM burst
system.mem_ctrl.avgMemAccLat                 31517.51                       # Average memory access latency per DRAM burst
system.mem_ctrl.avgRdBW                        745.93                       # Average DRAM read bandwidth in MiByte/s
system.mem_ctrl.avgWrBW                         41.80                       # Average achieved write bandwidth in MiByte/s
system.mem_ctrl.avgRdBWSys                     751.16                       # Average system read bandwidth in MiByte/s
system.mem_ctrl.avgWrBWSys                      82.30                       # Average system write bandwidth in MiByte/s
system.mem_ctrl.peakBW                       12800.00                       # Theoretical peak bandwidth in MiByte/s
system.mem_ctrl.busUtil                          6.15                       # Data bus utilization in percentage
system.mem_ctrl.busUtilRead                      5.83                       # Data bus utilization in percentage for reads
system.mem_ctrl.busUtilWrite                     0.33                       # Data bus utilization in percentage for writes
system.mem_ctrl.avgRdQLen                        1.00                       # Average read queue length when enqueuing
system.mem_ctrl.avgWrQLen                        2.08                       # Average write queue length when enqueuing
system.mem_ctrl.readRowHits                       448                       # Number of row buffer hits during reads
system.mem_ctrl.writeRowHits                       26                       # Number of row buffer hits during writes
system.mem_ctrl.readRowHitRate                  78.46                       # Row buffer hit rate for reads
system.mem_ctrl.writeRowHitRate                 44.07                       # Row buffer hit rate for writes
system.mem_ctrl.avgGap                       76768.03                       # Average gap between requests
system.mem_ctrl.pageHitRate                     75.24                       # Row buffer hit rate, read and write combined
system.mem_ctrl_0.actEnergy                    421260                       # Energy for activate commands per rank (pJ)
system.mem_ctrl_0.preEnergy                    216315                       # Energy for precharge commands per rank (pJ)
system.mem_ctrl_0.readEnergy                  2441880                       # Energy for read commands per rank (pJ)
system.mem_ctrl_0.writeEnergy                   83520                       # Energy for write commands per rank (pJ)
system.mem_ctrl_0.refreshEnergy          3687840.000000                       # Energy for refresh commands per rank (pJ)
system.mem_ctrl_0.actBackEnergy               5269650                       # Energy for active background per rank (pJ)
system.mem_ctrl_0.preBackEnergy                 75360                       # Energy for precharge background per rank (pJ)
system.mem_ctrl_0.actPowerDownEnergy         16119600                       # Energy for active power-down per rank (pJ)
system.mem_ctrl_0.prePowerDownEnergy           725280                       # Energy for precharge power-down per rank (pJ)
system.mem_ctrl_0.selfRefreshEnergy                 0                       # Energy for self refresh per rank (pJ)
system.mem_ctrl_0.totalEnergy                29040705                       # Total energy per rank (pJ)
system.mem_ctrl_0.averagePower             592.773301                       # Core power per rank (mW)
system.mem_ctrl_0.totalIdleTime              36974250                       # Total Idle time Per DRAM Rank
system.mem_ctrl_0.memoryStateTime::IDLE         31000                       # Time in different power states
system.mem_ctrl_0.memoryStateTime::REF        1560000                       # Time in different power states
system.mem_ctrl_0.memoryStateTime::SREF             0                       # Time in different power states
system.mem_ctrl_0.memoryStateTime::PRE_PDN      1887000                       # Time in different power states
system.mem_ctrl_0.memoryStateTime::ACT       10169500                       # Time in different power states
system.mem_ctrl_0.memoryStateTime::ACT_PDN     35343500                       # Time in different power states
system.mem_ctrl_1.actEnergy                    499800                       # Energy for activate commands per rank (pJ)
system.mem_ctrl_1.preEnergy                    239085                       # Energy for precharge commands per rank (pJ)
system.mem_ctrl_1.readEnergy                  1635060                       # Energy for read commands per rank (pJ)
system.mem_ctrl_1.writeEnergy                   83520                       # Energy for write commands per rank (pJ)
system.mem_ctrl_1.refreshEnergy          3687840.000000                       # Energy for refresh commands per rank (pJ)
system.mem_ctrl_1.actBackEnergy               3944970                       # Energy for active background per rank (pJ)
system.mem_ctrl_1.preBackEnergy                252960                       # Energy for precharge background per rank (pJ)
system.mem_ctrl_1.actPowerDownEnergy         17118810                       # Energy for active power-down per rank (pJ)
system.mem_ctrl_1.prePowerDownEnergy           821760                       # Energy for precharge power-down per rank (pJ)
system.mem_ctrl_1.selfRefreshEnergy                 0                       # Energy for self refresh per rank (pJ)
system.mem_ctrl_1.totalEnergy                28283805                       # Total energy per rank (pJ)
system.mem_ctrl_1.averagePower             577.323604                       # Core power per rank (mW)
system.mem_ctrl_1.totalIdleTime              39640750                       # Total Idle time Per DRAM Rank
system.mem_ctrl_1.memoryStateTime::IDLE        450000                       # Time in different power states
system.mem_ctrl_1.memoryStateTime::REF        1560000                       # Time in different power states
system.mem_ctrl_1.memoryStateTime::SREF             0                       # Time in different power states
system.mem_ctrl_1.memoryStateTime::PRE_PDN      2139250                       # Time in different power states
system.mem_ctrl_1.memoryStateTime::ACT        7297500                       # Time in different power states
system.mem_ctrl_1.memoryStateTime::ACT_PDN     37544250                       # Time in different power states
system.pwrStateResidencyTicks::UNDEFINED     48991000                       # Cumulative time (in ticks) in various power states
system.cache.pwrStateResidencyTicks::UNDEFINED     48991000                       # Cumulative time (in ticks) in various power states
system.cache.hits                               12990                       # Number of hits
system.cache.misses                               575                       # Number of misses
system.cache.missLatency::samples                 575                       # Ticks for misses to the cache
system.cache.missLatency::mean           61610.434783                       # Ticks for misses to the cache
system.cache.missLatency::gmean          59165.341170                       # Ticks for misses to the cache
system.cache.missLatency::stdev          28628.180404                       # Ticks for misses to the cache
system.cache.missLatency::0-32767                   4      0.70%      0.70% # Ticks for misses to the cache
system.cache.missLatency::32768-65535             454     78.96%     79.65% # Ticks for misses to the cache
system.cache.missLatency::65536-98303             109     18.96%     98.61% # Ticks for misses to the cache
system.cache.missLatency::98304-131071              1      0.17%     98.78% # Ticks for misses to the cache
system.cache.missLatency::131072-163839             1      0.17%     98.96% # Ticks for misses to the cache
system.cache.missLatency::163840-196607             0      0.00%     98.96% # Ticks for misses to the cache
system.cache.missLatency::196608-229375             0      0.00%     98.96% # Ticks for misses to the cache
system.cache.missLatency::229376-262143             0      0.00%     98.96% # Ticks for misses to the cache
system.cache.missLatency::262144-294911             1      0.17%     99.13% # Ticks for misses to the cache
system.cache.missLatency::294912-327679             2      0.35%     99.48% # Ticks for misses to the cache
system.cache.missLatency::327680-360447             3      0.52%    100.00% # Ticks for misses to the cache
system.cache.missLatency::360448-393215             0      0.00%    100.00% # Ticks for misses to the cache
system.cache.missLatency::393216-425983             0      0.00%    100.00% # Ticks for misses to the cache
system.cache.missLatency::425984-458751             0      0.00%    100.00% # Ticks for misses to the cache
system.cache.missLatency::458752-491519             0      0.00%    100.00% # Ticks for misses to the cache
system.cache.missLatency::491520-524287             0      0.00%    100.00% # Ticks for misses to the cache
system.cache.missLatency::total                   575                       # Ticks for misses to the cache
system.cache.hitRatio                        0.957612                       # The ratio of hits to the total accesses to the cache
system.cpu.dtb.fetch_hits                           0                       # ITB hits
system.cpu.dtb.fetch_misses                         0                       # ITB misses
system.cpu.dtb.fetch_acv                            0                       # ITB acv
system.cpu.dtb.fetch_accesses                       0                       # ITB accesses
system.cpu.dtb.read_hits                         1982                       # DTB read hits
system.cpu.dtb.read_misses                         12                       # DTB read misses
system.cpu.dtb.read_acv                             0                       # DTB read access violations
system.cpu.dtb.read_accesses                     1994                       # DTB read accesses
system.cpu.dtb.write_hits                        1240                       # DTB write hits
system.cpu.dtb.write_misses                         2                       # DTB write misses
system.cpu.dtb.write_acv                            0                       # DTB write access violations
system.cpu.dtb.write_accesses                    1242                       # DTB write accesses
system.cpu.dtb.data_hits                         3222                       # DTB hits
system.cpu.dtb.data_misses                         14                       # DTB misses
system.cpu.dtb.data_acv                             0                       # DTB access violations
system.cpu.dtb.data_accesses                     3236                       # DTB accesses
system.cpu.itb.fetch_hits                       10344                       # ITB hits
system.cpu.itb.fetch_misses                        24                       # ITB misses
system.cpu.itb.fetch_acv                            0                       # ITB acv
system.cpu.itb.fetch_accesses                   10368                       # ITB accesses
system.cpu.itb.read_hits                            0                       # DTB read hits
system.cpu.itb.read_misses                          0                       # DTB read misses
system.cpu.itb.read_acv                             0                       # DTB read access violations
system.cpu.itb.read_accesses                        0                       # DTB read accesses
system.cpu.itb.write_hits                           0                       # DTB write hits
system.cpu.itb.write_misses                         0                       # DTB write misses
system.cpu.itb.write_acv                            0                       # DTB write access violations
system.cpu.itb.write_accesses                       0                       # DTB write accesses
system.cpu.itb.data_hits                            0                       # DTB hits
system.cpu.itb.data_misses                          0                       # DTB misses
system.cpu.itb.data_acv                             0                       # DTB access violations
system.cpu.itb.data_accesses                        0                       # DTB accesses
system.cpu.workload.numSyscalls                    10                       # Number of system calls
system.cpu.pwrStateResidencyTicks::ON        48991000                       # Cumulative time (in ticks) in various power states
system.cpu.numCycles                            48991                       # number of cpu cycles simulated
system.cpu.numWorkItemsStarted                      0                       # number of work items this cpu started
system.cpu.numWorkItemsCompleted                    0                       # number of work items this cpu completed
system.cpu.committedInsts                       10329                       # Number of instructions committed
system.cpu.committedOps                         10329                       # Number of ops (including micro ops) committed
system.cpu.num_int_alu_accesses                 10181                       # Number of integer alu accesses
system.cpu.num_fp_alu_accesses                     16                       # Number of float alu accesses
system.cpu.num_vec_alu_accesses                     0                       # Number of vector alu accesses
system.cpu.num_func_calls                         357                       # number of times a function call or return occured
system.cpu.num_conditional_control_insts         1146                       # number of instructions that are conditional controls
system.cpu.num_int_insts                        10181                       # number of integer instructions
system.cpu.num_fp_insts                            16                       # number of float instructions
system.cpu.num_vec_insts                            0                       # number of vector instructions
system.cpu.num_int_register_reads               13900                       # number of times the integer registers were read
system.cpu.num_int_register_writes               7590                       # number of times the integer registers were written
system.cpu.num_fp_register_reads                   14                       # number of times the floating registers were read
system.cpu.num_fp_register_writes                   2                       # number of times the floating registers were written
system.cpu.num_vec_register_reads                   0                       # number of times the vector registers were read
system.cpu.num_vec_register_writes                  0                       # number of times the vector registers were written
system.cpu.num_mem_refs                          3236                       # number of memory refs
system.cpu.num_load_insts                        1994                       # Number of load instructions
system.cpu.num_store_insts                       1242                       # Number of store instructions
system.cpu.num_idle_cycles                          0                       # Number of idle cycles
system.cpu.num_busy_cycles                      48991                       # Number of busy cycles
system.cpu.not_idle_fraction                        1                       # Percentage of non-idle cycles
system.cpu.idle_fraction                            0                       # Percentage of idle cycles
system.cpu.Branches                              1604                       # Number of branches fetched
system.cpu.op_class::No_OpClass                    67      0.65%      0.65% # Class of executed instruction
system.cpu.op_class::IntAlu                      6997     67.65%     68.30% # Class of executed instruction
system.cpu.op_class::IntMult                       41      0.40%     68.69% # Class of executed instruction
system.cpu.op_class::IntDiv                         0      0.00%     68.69% # Class of executed instruction
system.cpu.op_class::FloatAdd                       2      0.02%     68.71% # Class of executed instruction
system.cpu.op_class::FloatCmp                       0      0.00%     68.71% # Class of executed instruction
system.cpu.op_class::FloatCvt                       0      0.00%     68.71% # Class of executed instruction
system.cpu.op_class::FloatMult                      0      0.00%     68.71% # Class of executed instruction
system.cpu.op_class::FloatMultAcc                   0      0.00%     68.71% # Class of executed instruction
system.cpu.op_class::FloatDiv                       0      0.00%     68.71% # Class of executed instruction
system.cpu.op_class::FloatMisc                      0      0.00%     68.71% # Class of executed instruction
system.cpu.op_class::FloatSqrt                      0      0.00%     68.71% # Class of executed instruction
system.cpu.op_class::SimdAdd                        0      0.00%     68.71% # Class of executed instruction
system.cpu.op_class::SimdAddAcc                     0      0.00%     68.71% # Class of executed instruction
system.cpu.op_class::SimdAlu                        0      0.00%     68.71% # Class of executed instruction
system.cpu.op_class::SimdCmp                        0      0.00%     68.71% # Class of executed instruction
system.cpu.op_class::SimdCvt                        0      0.00%     68.71% # Class of executed instruction
system.cpu.op_class::SimdMisc                       0      0.00%     68.71% # Class of executed instruction
system.cpu.op_class::SimdMult                       0      0.00%     68.71% # Class of executed instruction
system.cpu.op_class::SimdMultAcc                    0      0.00%     68.71% # Class of executed instruction
system.cpu.op_class::SimdShift                      0      0.00%     68.71% # Class of executed instruction
system.cpu.op_class::SimdShiftAcc                   0      0.00%     68.71% # Class of executed instruction
system.cpu.op_class::SimdSqrt                       0      0.00%     68.71% # Class of executed instruction
system.cpu.op_class::SimdFloatAdd                   0      0.00%     68.71% # Class of executed instruction
system.cpu.op_class::SimdFloatAlu                   0      0.00%     68.71% # Class of executed instruction
system.cpu.op_class::SimdFloatCmp                   0      0.00%     68.71% # Class of executed instruction
system.cpu.op_class::SimdFloatCvt                   0      0.00%     68.71% # Class of executed instruction
system.cpu.op_class::SimdFloatDiv                   0      0.00%     68.71% # Class of executed instruction
system.cpu.op_class::SimdFloatMisc                  0      0.00%     68.71% # Class of executed instruction
system.cpu.op_class::SimdFloatMult                  0      0.00%     68.71% # Class of executed instruction
system.cpu.op_class::SimdFloatMultAcc               0      0.00%     68.71% # Class of executed instruction
system.cpu.op_class::SimdFloatSqrt                  0      0.00%     68.71% # Class of executed instruction
system.cpu.op_class::MemRead                     1993     19.27%     87.98% # Class of executed instruction
system.cpu.op_class::MemWrite                    1229     11.88%     99.86% # Class of executed instruction
system.cpu.op_class::FloatMemRead                   1      0.01%     99.87% # Class of executed instruction
system.cpu.op_class::FloatMemWrite                 13      0.13%    100.00% # Class of executed instruction
system.cpu.op_class::IprAccess                      0      0.00%    100.00% # Class of executed instruction
system.cpu.op_class::InstPrefetch                   0      0.00%    100.00% # Class of executed instruction
system.cpu.op_class::total                      10343                       # Class of executed instruction
system.membus.snoop_filter.tot_requests             0                       # Total number of requests made to the snoop filter.
system.membus.snoop_filter.hit_single_requests            0                       # Number of requests hitting in the snoop filter with a single holder of the requested data.
system.membus.snoop_filter.hit_multi_requests            0                       # Number of requests hitting in the snoop filter with multiple (>1) holders of the requested data.
system.membus.snoop_filter.tot_snoops               0                       # Total number of snoops made to the snoop filter.
system.membus.snoop_filter.hit_single_snoops            0                       # Number of snoops hitting in the snoop filter with a single holder of the requested data.
system.membus.snoop_filter.hit_multi_snoops            0                       # Number of snoops hitting in the snoop filter with multiple (>1) holders of the requested data.
system.membus.pwrStateResidencyTicks::UNDEFINED     48991000                       # Cumulative time (in ticks) in various power states
system.membus.trans_dist::ReadReq                 575                       # Transaction distribution
system.membus.trans_dist::ReadResp                575                       # Transaction distribution
system.membus.trans_dist::WritebackDirty           63                       # Transaction distribution
system.membus.pkt_count_system.cache.mem_side::system.mem_ctrl.port         1213                       # Packet count per connected master and slave (bytes)
system.membus.pkt_count::total                   1213                       # Packet count per connected master and slave (bytes)
system.membus.pkt_size_system.cache.mem_side::system.mem_ctrl.port        40832                       # Cumulative packet size per connected master and slave (bytes)
system.membus.pkt_size::total                   40832                       # Cumulative packet size per connected master and slave (bytes)
system.membus.snoops                                0                       # Total snoops (count)
system.membus.snoopTraffic                          0                       # Total snoop traffic (bytes)
system.membus.snoop_fanout::samples               575                       # Request fanout histogram
system.membus.snoop_fanout::mean                    0                       # Request fanout histogram
system.membus.snoop_fanout::stdev                   0                       # Request fanout histogram
system.membus.snoop_fanout::underflows              0      0.00%      0.00% # Request fanout histogram
system.membus.snoop_fanout::0                     575    100.00%    100.00% # Request fanout histogram
system.membus.snoop_fanout::overflows               0      0.00%    100.00% # Request fanout histogram
system.membus.snoop_fanout::min_value               0                       # Request fanout histogram
system.membus.snoop_fanout::max_value               0                       # Request fanout histogram
system.membus.snoop_fanout::total                 575                       # Request fanout histogram
system.membus.reqLayer0.occupancy              890000                       # Layer occupancy (ticks)
system.membus.reqLayer0.utilization               1.8                       # Layer utilization (%)
system.membus.respLayer0.occupancy            3058500                       # Layer occupancy (ticks)
system.membus.respLayer0.utilization              6.2                       # Layer utilization (%)

---------- End Simulation Statistics   ----------
