
---------- Begin Simulation Statistics ----------
sim_seconds                                  0.000050                       # Number of seconds simulated
sim_ticks                                    50027000                       # Number of ticks simulated
final_tick                                   50027000                       # Number of ticks from beginning of simulation (restored from checkpoints and never reset)
sim_freq                                 1000000000000                       # Frequency of simulated ticks
host_inst_rate                                 692292                       # Simulator instruction rate (inst/s)
host_op_rate                                   691227                       # Simulator op (including micro ops) rate (op/s)
host_tick_rate                             3343380338                       # Simulator tick rate (ticks/s)
host_mem_usage                                8485376                       # Number of bytes of host memory used
host_seconds                                     0.02                       # Real time elapsed on the host
sim_insts                                       10329                       # Number of instructions simulated
sim_ops                                         10329                       # Number of ops (including micro ops) simulated
system.clk_domain.voltage_domain.voltage            1                       # Voltage in Volts
system.clk_domain.clock                          1000                       # Clock period in ticks
system.mem_ctrl.pwrStateResidencyTicks::UNDEFINED     50027000                       # Cumulative time (in ticks) in various power states
system.mem_ctrl.bytes_read::cpu.inst            25600                       # Number of bytes read from this memory
system.mem_ctrl.bytes_read::cpu.data            14336                       # Number of bytes read from this memory
system.mem_ctrl.bytes_read::total               39936                       # Number of bytes read from this memory
system.mem_ctrl.bytes_inst_read::cpu.inst        25600                       # Number of instructions bytes read from this memory
system.mem_ctrl.bytes_inst_read::total          25600                       # Number of instructions bytes read from this memory
system.mem_ctrl.bytes_written::writebacks         7168                       # Number of bytes written to this memory
system.mem_ctrl.bytes_written::total             7168                       # Number of bytes written to this memory
system.mem_ctrl.num_reads::cpu.inst               400                       # Number of read requests responded to by this memory
system.mem_ctrl.num_reads::cpu.data               224                       # Number of read requests responded to by this memory
system.mem_ctrl.num_reads::total                  624                       # Number of read requests responded to by this memory
system.mem_ctrl.num_writes::writebacks            112                       # Number of write requests responded to by this memory
system.mem_ctrl.num_writes::total                 112                       # Number of write requests responded to by this memory
system.mem_ctrl.bw_read::cpu.inst           511723669                       # Total read bandwidth from this memory (bytes/s)
system.mem_ctrl.bw_read::cpu.data           286565255                       # Total read bandwidth from this memory (bytes/s)
system.mem_ctrl.bw_read::total              798288924                       # Total read bandwidth from this memory (bytes/s)
system.mem_ctrl.bw_inst_read::cpu.inst      511723669                       # Instruction read bandwidth from this memory (bytes/s)
system.mem_ctrl.bw_inst_read::total         511723669                       # Instruction read bandwidth from this memory (bytes/s)
system.mem_ctrl.bw_write::writebacks        143282627                       # Write bandwidth from this memory (bytes/s)
system.mem_ctrl.bw_write::total             143282627                       # Write bandwidth from this memory (bytes/s)
system.mem_ctrl.bw_total::writebacks        143282627                       # Total bandwidth to/from this memory (bytes/s)
system.mem_ctrl.bw_total::cpu.inst          511723669                       # Total bandwidth to/from this memory (bytes/s)
system.mem_ctrl.bw_total::cpu.data          286565255                       # Total bandwidth to/from this memory (bytes/s)
system.mem_ctrl.bw_total::total             941571551                       # Total bandwidth to/from this memory (bytes/s)
system.mem_ctrl.readReqs                          624                       # Number of read requests accepted
system.mem_ctrl.writeReqs                         112                       # Number of write requests accepted
system.mem_ctrl.readBursts                        624                       # Number of DRAM read bursts, including those serviced by the write queue
system.mem_ctrl.writeBursts                       112                       # Number of DRAM write bursts, including those merged in the write queue
system.mem_ctrl.bytesReadDRAM                   36736                       # Total number of bytes read from DRAM
system.mem_ctrl.bytesReadWrQ                     3200                       # Total number of bytes read from write queue
system.mem_ctrl.bytesWritten                     2240                       # Total number of bytes written to DRAM
system.mem_ctrl.bytesReadSys                    39936                       # Total read bytes from the system interface side
system.mem_ctrl.bytesWrittenSys                  7168                       # Total written bytes from the system interface side
system.mem_ctrl.servicedByWrQ                      50                       # Number of DRAM read bursts serviced by the write queue
system.mem_ctrl.mergedWrBursts                     50                       # Number of DRAM write bursts merged with an existing one
system.mem_ctrl.neitherReadNorWriteReqs             0                       # Number of requests that are neither read nor write
system.mem_ctrl.perBankRdBursts::0                 61                       # Per bank write bursts
system.mem_ctrl.perBankRdBursts::1                  0                       # Per bank write bursts
system.mem_ctrl.perBankRdBursts::2                 56                       # Per bank write bursts
system.mem_ctrl.perBankRdBursts::3                 70                       # Per bank write bursts
system.mem_ctrl.perBankRdBursts::4                 38                       # Per bank write bursts
system.mem_ctrl.perBankRdBursts::5                 29                       # Per bank write bursts
system.mem_ctrl.perBankRdBursts::6                 49                       # Per bank write bursts
system.mem_ctrl.perBankRdBursts::7                 40                       # Per bank write bursts
system.mem_ctrl.perBankRdBursts::8                 35                       # Per bank write bursts
system.mem_ctrl.perBankRdBursts::9                 40                       # Per bank write bursts
system.mem_ctrl.perBankRdBursts::10                44                       # Per bank write bursts
system.mem_ctrl.perBankRdBursts::11                20                       # Per bank write bursts
system.mem_ctrl.perBankRdBursts::12                11                       # Per bank write bursts
system.mem_ctrl.perBankRdBursts::13                13                       # Per bank write bursts
system.mem_ctrl.perBankRdBursts::14                40                       # Per bank write bursts
system.mem_ctrl.perBankRdBursts::15                28                       # Per bank write bursts
system.mem_ctrl.perBankWrBursts::0                  3                       # Per bank write bursts
system.mem_ctrl.perBankWrBursts::1                  0                       # Per bank write bursts
system.mem_ctrl.perBankWrBursts::2                  1                       # Per bank write bursts
system.mem_ctrl.perBankWrBursts::3                  3                       # Per bank write bursts
system.mem_ctrl.perBankWrBursts::4                  4                       # Per bank write bursts
system.mem_ctrl.perBankWrBursts::5                  0                       # Per bank write bursts
system.mem_ctrl.perBankWrBursts::6                  5                       # Per bank write bursts
system.mem_ctrl.perBankWrBursts::7                  6                       # Per bank write bursts
system.mem_ctrl.perBankWrBursts::8                  6                       # Per bank write bursts
system.mem_ctrl.perBankWrBursts::9                  0                       # Per bank write bursts
system.mem_ctrl.perBankWrBursts::10                 0                       # Per bank write bursts
system.mem_ctrl.perBankWrBursts::11                 0                       # Per bank write bursts
system.mem_ctrl.perBankWrBursts::12                 2                       # Per bank write bursts
system.mem_ctrl.perBankWrBursts::13                 2                       # Per bank write bursts
system.mem_ctrl.perBankWrBursts::14                 2                       # Per bank write bursts
system.mem_ctrl.perBankWrBursts::15                 1                       # Per bank write bursts
system.mem_ctrl.numRdRetry                          0                       # Number of times read queue was full causing retry
system.mem_ctrl.numWrRetry                          0                       # Number of times write queue was full causing retry
system.mem_ctrl.totGap                       50014000                       # Total gap between requests
system.mem_ctrl.readPktSize::0                      0                       # Read request sizes (log2)
system.mem_ctrl.readPktSize::1                      0                       # Read request sizes (log2)
system.mem_ctrl.readPktSize::2                      0                       # Read request sizes (log2)
system.mem_ctrl.readPktSize::3                      0                       # Read request sizes (log2)
system.mem_ctrl.readPktSize::4                      0                       # Read request sizes (log2)
system.mem_ctrl.readPktSize::5                      0                       # Read request sizes (log2)
system.mem_ctrl.readPktSize::6                    624                       # Read request sizes (log2)
system.mem_ctrl.writePktSize::0                     0                       # Write request sizes (log2)
system.mem_ctrl.writePktSize::1                     0                       # Write request sizes (log2)
system.mem_ctrl.writePktSize::2                     0                       # Write request sizes (log2)
system.mem_ctrl.writePktSize::3                     0                       # Write request sizes (log2)
system.mem_ctrl.writePktSize::4                     0                       # Write request sizes (log2)
system.mem_ctrl.writePktSize::5                     0                       # Write request sizes (log2)
system.mem_ctrl.writePktSize::6                   112                       # Write request sizes (log2)
system.mem_ctrl.rdQLenPdf::0                      574                       # What read queue length does an incoming req see
system.mem_ctrl.rdQLenPdf::1                        0                       # What read queue length does an incoming req see
system.mem_ctrl.rdQLenPdf::2                        0                       # What read queue length does an incoming req see
system.mem_ctrl.rdQLenPdf::3                        0                       # What read queue length does an incoming req see
system.mem_ctrl.rdQLenPdf::4                        0                       # What read queue length does an incoming req see
system.mem_ctrl.rdQLenPdf::5                        0                       # What read queue length does an incoming req see
system.mem_ctrl.rdQLenPdf::6                        0                       # What read queue length does an incoming req see
system.mem_ctrl.rdQLenPdf::7                        0                       # What read queue length does an incoming req see
system.mem_ctrl.rdQLenPdf::8                        0                       # What read queue length does an incoming req see
system.mem_ctrl.rdQLenPdf::9                        0                       # What read queue length does an incoming req see
system.mem_ctrl.rdQLenPdf::10                       0                       # What read queue length does an incoming req see
system.mem_ctrl.rdQLenPdf::11                       0                       # What read queue length does an incoming req see
system.mem_ctrl.rdQLenPdf::12                       0                       # What read queue length does an incoming req see
system.mem_ctrl.rdQLenPdf::13                       0                       # What read queue length does an incoming req see
system.mem_ctrl.rdQLenPdf::14                       0                       # What read queue length does an incoming req see
system.mem_ctrl.rdQLenPdf::15                       0                       # What read queue length does an incoming req see
system.mem_ctrl.rdQLenPdf::16                       0                       # What read queue length does an incoming req see
system.mem_ctrl.rdQLenPdf::17                       0                       # What read queue length does an incoming req see
system.mem_ctrl.rdQLenPdf::18                       0                       # What read queue length does an incoming req see
system.mem_ctrl.rdQLenPdf::19                       0                       # What read queue length does an incoming req see
system.mem_ctrl.rdQLenPdf::20                       0                       # What read queue length does an incoming req see
system.mem_ctrl.rdQLenPdf::21                       0                       # What read queue length does an incoming req see
system.mem_ctrl.rdQLenPdf::22                       0                       # What read queue length does an incoming req see
system.mem_ctrl.rdQLenPdf::23                       0                       # What read queue length does an incoming req see
system.mem_ctrl.rdQLenPdf::24                       0                       # What read queue length does an incoming req see
system.mem_ctrl.rdQLenPdf::25                       0                       # What read queue length does an incoming req see
system.mem_ctrl.rdQLenPdf::26                       0                       # What read queue length does an incoming req see
system.mem_ctrl.rdQLenPdf::27                       0                       # What read queue length does an incoming req see
system.mem_ctrl.rdQLenPdf::28                       0                       # What read queue length does an incoming req see
system.mem_ctrl.rdQLenPdf::29                       0                       # What read queue length does an incoming req see
system.mem_ctrl.rdQLenPdf::30                       0                       # What read queue length does an incoming req see
system.mem_ctrl.rdQLenPdf::31                       0                       # What read queue length does an incoming req see
system.mem_ctrl.wrQLenPdf::0                        1                       # What write queue length does an incoming req see
system.mem_ctrl.wrQLenPdf::1                        1                       # What write queue length does an incoming req see
system.mem_ctrl.wrQLenPdf::2                        1                       # What write queue length does an incoming req see
system.mem_ctrl.wrQLenPdf::3                        1                       # What write queue length does an incoming req see
system.mem_ctrl.wrQLenPdf::4                        1                       # What write queue length does an incoming req see
system.mem_ctrl.wrQLenPdf::5                        1                       # What write queue length does an incoming req see
system.mem_ctrl.wrQLenPdf::6                        1                       # What write queue length does an incoming req see
system.mem_ctrl.wrQLenPdf::7                        1                       # What write queue length does an incoming req see
system.mem_ctrl.wrQLenPdf::8                        1                       # What write queue length does an incoming req see
system.mem_ctrl.wrQLenPdf::9                        1                       # What write queue length does an incoming req see
system.mem_ctrl.wrQLenPdf::10                       1                       # What write queue length does an incoming req see
system.mem_ctrl.wrQLenPdf::11                       1                       # What write queue length does an incoming req see
system.mem_ctrl.wrQLenPdf::12                       1                       # What write queue length does an incoming req see
system.mem_ctrl.wrQLenPdf::13                       1                       # What write queue length does an incoming req see
system.mem_ctrl.wrQLenPdf::14                       1                       # What write queue length does an incoming req see
system.mem_ctrl.wrQLenPdf::15                       2                       # What write queue length does an incoming req see
system.mem_ctrl.wrQLenPdf::16                       2                       # What write queue length does an incoming req see
system.mem_ctrl.wrQLenPdf::17                       2                       # What write queue length does an incoming req see
system.mem_ctrl.wrQLenPdf::18                       3                       # What write queue length does an incoming req see
system.mem_ctrl.wrQLenPdf::19                       3                       # What write queue length does an incoming req see
system.mem_ctrl.wrQLenPdf::20                       3                       # What write queue length does an incoming req see
system.mem_ctrl.wrQLenPdf::21                       3                       # What write queue length does an incoming req see
system.mem_ctrl.wrQLenPdf::22                       3                       # What write queue length does an incoming req see
system.mem_ctrl.wrQLenPdf::23                       4                       # What write queue length does an incoming req see
system.mem_ctrl.wrQLenPdf::24                       3                       # What write queue length does an incoming req see
system.mem_ctrl.wrQLenPdf::25                       3                       # What write queue length does an incoming req see
system.mem_ctrl.wrQLenPdf::26                       3                       # What write queue length does an incoming req see
system.mem_ctrl.wrQLenPdf::27                       2                       # What write queue length does an incoming req see
system.mem_ctrl.wrQLenPdf::28                       2                       # What write queue length does an incoming req see
system.mem_ctrl.wrQLenPdf::29                       2                       # What write queue length does an incoming req see
system.mem_ctrl.wrQLenPdf::30                       2                       # What write queue length does an incoming req see
system.mem_ctrl.wrQLenPdf::31                       2                       # What write queue length does an incoming req see
system.mem_ctrl.wrQLenPdf::32                       2                       # What write queue length does an incoming req see
system.mem_ctrl.wrQLenPdf::33                       1                       # What write queue length does an incoming req see
system.mem_ctrl.wrQLenPdf::34                       0                       # What write queue length does an incoming req see
system.mem_ctrl.wrQLenPdf::35                       0                       # What write queue length does an incoming req see
system.mem_ctrl.wrQLenPdf::36                       0                       # What write queue length does an incoming req see
system.mem_ctrl.wrQLenPdf::37                       0                       # What write queue length does an incoming req see
system.mem_ctrl.wrQLenPdf::38                       0                       # What write queue length does an incoming req see
system.mem_ctrl.wrQLenPdf::39                       0                       # What write queue length does an incoming req see
system.mem_ctrl.wrQLenPdf::40                       0                       # What write queue length does an incoming req see
system.mem_ctrl.wrQLenPdf::41                       0                       # What write queue length does an incoming req see
system.mem_ctrl.wrQLenPdf::42                       0                       # What write queue length does an incoming req see
system.mem_ctrl.wrQLenPdf::43                       0                       # What write queue length does an incoming req see
system.mem_ctrl.wrQLenPdf::44                       0                       # What write queue length does an incoming req see
system.mem_ctrl.wrQLenPdf::45                       0                       # What write queue length does an incoming req see
system.mem_ctrl.wrQLenPdf::46                       0                       # What write queue length does an incoming req see
system.mem_ctrl.wrQLenPdf::47                       0                       # What write queue length does an incoming req see
system.mem_ctrl.wrQLenPdf::48                       0                       # What write queue length does an incoming req see
system.mem_ctrl.wrQLenPdf::49                       0                       # What write queue length does an incoming req see
system.mem_ctrl.wrQLenPdf::50                       0                       # What write queue length does an incoming req see
system.mem_ctrl.wrQLenPdf::51                       0                       # What write queue length does an incoming req see
system.mem_ctrl.wrQLenPdf::52                       0                       # What write queue length does an incoming req see
system.mem_ctrl.wrQLenPdf::53                       0                       # What write queue length does an incoming req see
system.mem_ctrl.wrQLenPdf::54                       0                       # What write queue length does an incoming req see
system.mem_ctrl.wrQLenPdf::55                       0                       # What write queue length does an incoming req see
system.mem_ctrl.wrQLenPdf::56                       0                       # What write queue length does an incoming req see
system.mem_ctrl.wrQLenPdf::57                       0                       # What write queue length does an incoming req see
system.mem_ctrl.wrQLenPdf::58                       0                       # What write queue length does an incoming req see
system.mem_ctrl.wrQLenPdf::59                       0                       # What write queue length does an incoming req see
system.mem_ctrl.wrQLenPdf::60                       0                       # What write queue length does an incoming req see
system.mem_ctrl.wrQLenPdf::61                       0                       # What write queue length does an incoming req see
system.mem_ctrl.wrQLenPdf::62                       0                       # What write queue length does an incoming req see
system.mem_ctrl.wrQLenPdf::63                       0                       # What write queue length does an incoming req see
system.mem_ctrl.bytesPerActivate::samples          120                       # Bytes accessed per row activation
system.mem_ctrl.bytesPerActivate::mean     304.533333                       # Bytes accessed per row activation
system.mem_ctrl.bytesPerActivate::gmean    202.872483                       # Bytes accessed per row activation
system.mem_ctrl.bytesPerActivate::stdev    285.734758                       # Bytes accessed per row activation
system.mem_ctrl.bytesPerActivate::0-127            31     25.83%     25.83% # Bytes accessed per row activation
system.mem_ctrl.bytesPerActivate::128-255           37     30.83%     56.67% # Bytes accessed per row activation
system.mem_ctrl.bytesPerActivate::256-383           17     14.17%     70.83% # Bytes accessed per row activation
system.mem_ctrl.bytesPerActivate::384-511           10      8.33%     79.17% # Bytes accessed per row activation
system.mem_ctrl.bytesPerActivate::512-639            9      7.50%     86.67% # Bytes accessed per row activation
system.mem_ctrl.bytesPerActivate::640-767            1      0.83%     87.50% # Bytes accessed per row activation
system.mem_ctrl.bytesPerActivate::768-895            5      4.17%     91.67% # Bytes accessed per row activation
system.mem_ctrl.bytesPerActivate::896-1023            1      0.83%     92.50% # Bytes accessed per row activation
system.mem_ctrl.bytesPerActivate::1024-1151            9      7.50%    100.00% # Bytes accessed per row activation
system.mem_ctrl.bytesPerActivate::total           120                       # Bytes accessed per row activation
system.mem_ctrl.rdPerTurnAround::samples            2                       # Reads before turning the bus around for writes
system.mem_ctrl.rdPerTurnAround::mean             282                       # Reads before turning the bus around for writes
system.mem_ctrl.rdPerTurnAround::gmean      99.136270                       # Reads before turning the bus around for writes
system.mem_ctrl.rdPerTurnAround::stdev     373.352380                       # Reads before turning the bus around for writes
system.mem_ctrl.rdPerTurnAround::0-31               1     50.00%     50.00% # Reads before turning the bus around for writes
system.mem_ctrl.rdPerTurnAround::544-575            1     50.00%    100.00% # Reads before turning the bus around for writes
system.mem_ctrl.rdPerTurnAround::total              2                       # Reads before turning the bus around for writes
system.mem_ctrl.wrPerTurnAround::samples            2                       # Writes before turning the bus around for reads
system.mem_ctrl.wrPerTurnAround::mean       17.500000                       # Writes before turning the bus around for reads
system.mem_ctrl.wrPerTurnAround::gmean      17.435596                       # Writes before turning the bus around for reads
system.mem_ctrl.wrPerTurnAround::stdev       2.121320                       # Writes before turning the bus around for reads
system.mem_ctrl.wrPerTurnAround::16                 1     50.00%     50.00% # Writes before turning the bus around for reads
system.mem_ctrl.wrPerTurnAround::19                 1     50.00%    100.00% # Writes before turning the bus around for reads
system.mem_ctrl.wrPerTurnAround::total              2                       # Writes before turning the bus around for reads
system.mem_ctrl.totQLat                       7092500                       # Total ticks spent queuing
system.mem_ctrl.totMemAccLat                 17855000                       # Total ticks spent from burst creation until serviced by the DRAM
system.mem_ctrl.totBusLat                     2870000                       # Total ticks spent in databus transfers
system.mem_ctrl.avgQLat                      12356.27                       # Average queueing delay per DRAM burst
system.mem_ctrl.avgBusLat                     5000.00                       # Average bus latency per DRAM burst
system.mem_ctrl.avgMemAccLat                 31106.27                       # Average memory access latency per DRAM burst
system.mem_ctrl.avgRdBW                        734.32                       # Average DRAM read bandwidth in MiByte/s
system.mem_ctrl.avgWrBW                         44.78                       # Average achieved write bandwidth in MiByte/s
system.mem_ctrl.avgRdBWSys                     798.29                       # Average system read bandwidth in MiByte/s
system.mem_ctrl.avgWrBWSys                     143.28                       # Average system write bandwidth in MiByte/s
system.mem_ctrl.peakBW                       12800.00                       # Theoretical peak bandwidth in MiByte/s
system.mem_ctrl.busUtil                          6.09                       # Data bus utilization in percentage
system.mem_ctrl.busUtilRead                      5.74                       # Data bus utilization in percentage for reads
system.mem_ctrl.busUtilWrite                     0.35                       # Data bus utilization in percentage for writes
system.mem_ctrl.avgRdQLen                        1.00                       # Average read queue length when enqueuing
system.mem_ctrl.avgWrQLen                        2.54                       # Average write queue length when enqueuing
system.mem_ctrl.readRowHits                       456                       # Number of row buffer hits during reads
system.mem_ctrl.writeRowHits                       24                       # Number of row buffer hits during writes
system.mem_ctrl.readRowHitRate                  79.44                       # Row buffer hit rate for reads
system.mem_ctrl.writeRowHitRate                 38.71                       # Row buffer hit rate for writes
system.mem_ctrl.avgGap                       67953.80                       # Average gap between requests
system.mem_ctrl.pageHitRate                     75.47                       # Row buffer hit rate, read and write combined
system.mem_ctrl_0.actEnergy                    449820                       # Energy for activate commands per rank (pJ)
system.mem_ctrl_0.preEnergy                    220110                       # Energy for precharge commands per rank (pJ)
system.mem_ctrl_0.readEnergy                  2449020                       # Energy for read commands per rank (pJ)
system.mem_ctrl_0.writeEnergy                  114840                       # Energy for write commands per rank (pJ)
system.mem_ctrl_0.refreshEnergy          3687840.000000                       # Energy for refresh commands per rank (pJ)
system.mem_ctrl_0.actBackEnergy               6053400                       # Energy for active background per rank (pJ)
system.mem_ctrl_0.preBackEnergy                 75840                       # Energy for precharge background per rank (pJ)
system.mem_ctrl_0.actPowerDownEnergy         16116750                       # Energy for active power-down per rank (pJ)
system.mem_ctrl_0.prePowerDownEnergy           465120                       # Energy for precharge power-down per rank (pJ)
system.mem_ctrl_0.selfRefreshEnergy                 0                       # Energy for self refresh per rank (pJ)
system.mem_ctrl_0.totalEnergy                29632740                       # Total energy per rank (pJ)
system.mem_ctrl_0.averagePower             592.329019                       # Core power per rank (mW)
system.mem_ctrl_0.totalIdleTime              36042000                       # Total Idle time Per DRAM Rank
system.mem_ctrl_0.memoryStateTime::IDLE         31000                       # Time in different power states
system.mem_ctrl_0.memoryStateTime::REF        1560000                       # Time in different power states
system.mem_ctrl_0.memoryStateTime::SREF             0                       # Time in different power states
system.mem_ctrl_0.memoryStateTime::PRE_PDN      1210250                       # Time in different power states
system.mem_ctrl_0.memoryStateTime::ACT       11894750                       # Time in different power states
system.mem_ctrl_0.memoryStateTime::ACT_PDN     35331000                       # Time in different power states
system.mem_ctrl_1.actEnergy                    471240                       # Energy for activate commands per rank (pJ)
system.mem_ctrl_1.preEnergy                    235290                       # Energy for precharge commands per rank (pJ)
system.mem_ctrl_1.readEnergy                  1649340                       # Energy for read commands per rank (pJ)
system.mem_ctrl_1.writeEnergy                   67860                       # Energy for write commands per rank (pJ)
system.mem_ctrl_1.refreshEnergy          3687840.000000                       # Energy for refresh commands per rank (pJ)
system.mem_ctrl_1.actBackEnergy               3899940                       # Energy for active background per rank (pJ)
system.mem_ctrl_1.preBackEnergy                252960                       # Energy for precharge background per rank (pJ)
system.mem_ctrl_1.actPowerDownEnergy         17636370                       # Energy for active power-down per rank (pJ)
system.mem_ctrl_1.prePowerDownEnergy           821760                       # Energy for precharge power-down per rank (pJ)
system.mem_ctrl_1.selfRefreshEnergy                 0                       # Energy for self refresh per rank (pJ)
system.mem_ctrl_1.totalEnergy                28722600                       # Total energy per rank (pJ)
system.mem_ctrl_1.averagePower             574.136225                       # Core power per rank (mW)
system.mem_ctrl_1.totalIdleTime              40773500                       # Total Idle time Per DRAM Rank
system.mem_ctrl_1.memoryStateTime::IDLE        450000                       # Time in different power states
system.mem_ctrl_1.memoryStateTime::REF        1560000                       # Time in different power states
system.mem_ctrl_1.memoryStateTime::SREF             0                       # Time in different power states
system.mem_ctrl_1.memoryStateTime::PRE_PDN      2139250                       # Time in different power states
system.mem_ctrl_1.memoryStateTime::ACT        7200750                       # Time in different power states
system.mem_ctrl_1.memoryStateTime::ACT_PDN     38677000                       # Time in different power states
system.pwrStateResidencyTicks::UNDEFINED     50027000                       # Cumulative time (in ticks) in various power states
system.cache.pwrStateResidencyTicks::UNDEFINED     50027000                       # Cumulative time (in ticks) in various power states
system.cache.hits                               12941                       # Number of hits
system.cache.misses                               624                       # Number of misses
system.cache.missLatency::samples                 624                       # Ticks for misses to the cache
system.cache.missLatency::mean           58432.692308                       # Ticks for misses to the cache
system.cache.missLatency::gmean          54969.233197                       # Ticks for misses to the cache
system.cache.missLatency::stdev          28449.927094                       # Ticks for misses to the cache
system.cache.missLatency::0-32767                  50      8.01%      8.01% # Ticks for misses to the cache
system.cache.missLatency::32768-65535             461     73.88%     81.89% # Ticks for misses to the cache
system.cache.missLatency::65536-98303             106     16.99%     98.88% # Ticks for misses to the cache
system.cache.missLatency::98304-131071              1      0.16%     99.04% # Ticks for misses to the cache
system.cache.missLatency::131072-163839             0      0.00%     99.04% # Ticks for misses to the cache
system.cache.missLatency::163840-196607             0      0.00%     99.04% # Ticks for misses to the cache
system.cache.missLatency::196608-229375             0      0.00%     99.04% # Ticks for misses to the cache
system.cache.missLatency::229376-262143             0      0.00%     99.04% # Ticks for misses to the cache
system.cache.missLatency::262144-294911             1      0.16%     99.20% # Ticks for misses to the cache
system.cache.missLatency::294912-327679             3      0.48%     99.68% # Ticks for misses to the cache
system.cache.missLatency::327680-360447             2      0.32%    100.00% # Ticks for misses to the cache
system.cache.missLatency::360448-393215             0      0.00%    100.00% # Ticks for misses to the cache
system.cache.missLatency::393216-425983             0      0.00%    100.00% # Ticks for misses to the cache
system.cache.missLatency::425984-458751             0      0.00%    100.00% # Ticks for misses to the cache
system.cache.missLatency::458752-491519             0      0.00%    100.00% # Ticks for misses to the cache
system.cache.missLatency::491520-524287             0      0.00%    100.00% # Ticks for misses to the cache
system.cache.missLatency::total                   624                       # Ticks for misses to the cache
system.cache.hitRatio                        0.953999                       # The ratio of hits to the total accesses to the cache
system.cpu.dtb.fetch_hits                           0                       # ITB hits
system.cpu.dtb.fetch_misses                         0                       # ITB misses
system.cpu.dtb.fetch_acv                            0                       # ITB acv
system.cpu.dtb.fetch_accesses                       0                       # ITB accesses
system.cpu.dtb.read_hits                         1982                       # DTB read hits
system.cpu.dtb.read_misses                         12                       # DTB read misses
system.cpu.dtb.read_acv                             0                       # DTB read access violations
system.cpu.dtb.read_accesses                     1994                       # DTB read accesses
system.cpu.dtb.write_hits                        1240                       # DTB write hits
system.cpu.dtb.write_misses                         2                       # DTB write misses
system.cpu.dtb.write_acv                            0                       # DTB write access violations
system.cpu.dtb.write_accesses                    1242                       # DTB write accesses
system.cpu.dtb.data_hits                         3222                       # DTB hits
system.cpu.dtb.data_misses                         14                       # DTB misses
system.cpu.dtb.data_acv                             0                       # DTB access violations
system.cpu.dtb.data_accesses                     3236                       # DTB accesses
system.cpu.itb.fetch_hits                       10344                       # ITB hits
system.cpu.itb.fetch_misses                        24                       # ITB misses
system.cpu.itb.fetch_acv                            0                       # ITB acv
system.cpu.itb.fetch_accesses                   10368                       # ITB accesses
system.cpu.itb.read_hits                            0                       # DTB read hits
system.cpu.itb.read_misses                          0                       # DTB read misses
system.cpu.itb.read_acv                             0                       # DTB read access violations
system.cpu.itb.read_accesses                        0                       # DTB read accesses
system.cpu.itb.write_hits                           0                       # DTB write hits
system.cpu.itb.write_misses                         0                       # DTB write misses
system.cpu.itb.write_acv                            0                       # DTB write access violations
system.cpu.itb.write_accesses                       0                       # DTB write accesses
system.cpu.itb.data_hits                            0                       # DTB hits
system.cpu.itb.data_misses                          0                       # DTB misses
system.cpu.itb.data_acv                             0                       # DTB access violations
system.cpu.itb.data_accesses                        0                       # DTB accesses
system.cpu.workload.numSyscalls                    10                       # Number of system calls
system.cpu.pwrStateResidencyTicks::ON        50027000                       # Cumulative time (in ticks) in various power states
system.cpu.numCycles                            50027                       # number of cpu cycles simulated
system.cpu.numWorkItemsStarted                      0                       # number of work items this cpu started
system.cpu.numWorkItemsCompleted                    0                       # number of work items this cpu completed
system.cpu.committedInsts                       10329                       # Number of instructions committed
system.cpu.committedOps                         10329                       # Number of ops (including micro ops) committed
system.cpu.num_int_alu_accesses                 10181                       # Number of integer alu accesses
system.cpu.num_fp_alu_accesses                     16                       # Number of float alu accesses
system.cpu.num_vec_alu_accesses                     0                       # Number of vector alu accesses
system.cpu.num_func_calls                         357                       # number of times a function call or return occured
system.cpu.num_conditional_control_insts         1146                       # number of instructions that are conditional controls
system.cpu.num_int_insts                        10181                       # number of integer instructions
system.cpu.num_fp_insts                            16                       # number of float instructions
system.cpu.num_vec_insts                            0                       # number of vector instructions
system.cpu.num_int_register_reads               13900                       # number of times the integer registers were read
system.cpu.num_int_register_writes               7590                       # number of times the integer registers were written
system.cpu.num_fp_register_reads                   14                       # number of times the floating registers were read
system.cpu.num_fp_register_writes                   2                       # number of times the floating registers were written
system.cpu.num_vec_register_reads                   0                       # number of times the vector registers were read
system.cpu.num_vec_register_writes                  0                       # number of times the vector registers were written
system.cpu.num_mem_refs                          3236                       # number of memory refs
system.cpu.num_load_insts                        1994                       # Number of load instructions
system.cpu.num_store_insts                       1242                       # Number of store instructions
system.cpu.num_idle_cycles                          0                       # Number of idle cycles
system.cpu.num_busy_cycles                      50027                       # Number of busy cycles
system.cpu.not_idle_fraction                        1                       # Percentage of non-idle cycles
system.cpu.idle_fraction                            0                       # Percentage of idle cycles
system.cpu.Branches                              1604                       # Number of branches fetched
system.cpu.op_class::No_OpClass                    67      0.65%      0.65% # Class of executed instruction
system.cpu.op_class::IntAlu                      6997     67.65%     68.30% # Class of executed instruction
system.cpu.op_class::IntMult                       41      0.40%     68.69% # Class of executed instruction
system.cpu.op_class::IntDiv                         0      0.00%     68.69% # Class of executed instruction
system.cpu.op_class::FloatAdd                       2      0.02%     68.71% # Class of executed instruction
system.cpu.op_class::FloatCmp                       0      0.00%     68.71% # Class of executed instruction
system.cpu.op_class::FloatCvt                       0      0.00%     68.71% # Class of executed instruction
system.cpu.op_class::FloatMult                      0      0.00%     68.71% # Class of executed instruction
system.cpu.op_class::FloatMultAcc                   0      0.00%     68.71% # Class of executed instruction
system.cpu.op_class::FloatDiv                       0      0.00%     68.71% # Class of executed instruction
system.cpu.op_class::FloatMisc                      0      0.00%     68.71% # Class of executed instruction
system.cpu.op_class::FloatSqrt                      0      0.00%     68.71% # Class of executed instruction
system.cpu.op_class::SimdAdd                        0      0.00%     68.71% # Class of executed instruction
system.cpu.op_class::SimdAddAcc                     0      0.00%     68.71% # Class of executed instruction
system.cpu.op_class::SimdAlu                        0      0.00%     68.71% # Class of executed instruction
system.cpu.op_class::SimdCmp                        0      0.00%     68.71% # Class of executed instruction
system.cpu.op_class::SimdCvt                        0      0.00%     68.71% # Class of executed instruction
system.cpu.op_class::SimdMisc                       0      0.00%     68.71% # Class of executed instruction
system.cpu.op_class::SimdMult                       0      0.00%     68.71% # Class of executed instruction
system.cpu.op_class::SimdMultAcc                    0      0.00%     68.71% # Class of executed instruction
system.cpu.op_class::SimdShift                      0      0.00%     68.71% # Class of executed instruction
system.cpu.op_class::SimdShiftAcc                   0      0.00%     68.71% # Class of executed instruction
system.cpu.op_class::SimdSqrt                       0      0.00%     68.71% # Class of executed instruction
system.cpu.op_class::SimdFloatAdd                   0      0.00%     68.71% # Class of executed instruction
system.cpu.op_class::SimdFloatAlu                   0      0.00%     68.71% # Class of executed instruction
system.cpu.op_class::SimdFloatCmp                   0      0.00%     68.71% # Class of executed instruction
system.cpu.op_class::SimdFloatCvt                   0      0.00%     68.71% # Class of executed instruction
system.cpu.op_class::SimdFloatDiv                   0      0.00%     68.71% # Class of executed instruction
system.cpu.op_class::SimdFloatMisc                  0      0.00%     68.71% # Class of executed instruction
system.cpu.op_class::SimdFloatMult                  0      0.00%     68.71% # Class of executed instruction
system.cpu.op_class::SimdFloatMultAcc               0      0.00%     68.71% # Class of executed instruction
system.cpu.op_class::SimdFloatSqrt                  0      0.00%     68.71% # Class of executed instruction
system.cpu.op_class::MemRead                     1993     19.27%     87.98% # Class of executed instruction
system.cpu.op_class::MemWrite                    1229     11.88%     99.86% # Class of executed instruction
system.cpu.op_class::FloatMemRead                   1      0.01%     99.87% # Class of executed instruction
system.cpu.op_class::FloatMemWrite                 13      0.13%    100.00% # Class of executed instruction
system.cpu.op_class::IprAccess                      0      0.00%    100.00% # Class of executed instruction
system.cpu.op_class::InstPrefetch                   0      0.00%    100.00% # Class of executed instruction
system.cpu.op_class::total                      10343                       # Class of executed instruction
system.membus.snoop_filter.tot_requests             0                       # Total number of requests made to the snoop filter.
system.membus.snoop_filter.hit_single_requests            0                       # Number of requests hitting in the snoop filter with a single holder of the requested data.
system.membus.snoop_filter.hit_multi_requests            0                       # Number of requests hitting in the snoop filter with multiple (>1) holders of the requested data.
system.membus.snoop_filter.tot_snoops               0                       # Total number of snoops made to the snoop filter.
system.membus.snoop_filter.hit_single_snoops            0                       # Number of snoops hitting in the snoop filter with a single holder of the requested data.
system.membus.snoop_filter.hit_multi_snoops            0                       # Number of snoops hitting in the snoop filter with multiple (>1) holders of the requested data.
system.membus.pwrStateResidencyTicks::UNDEFINED     50027000                       # Cumulative time (in ticks) in various power states
system.membus.trans_dist::ReadReq                 624                       # Transaction distribution
system.membus.trans_dist::ReadResp                624                       # Transaction distribution
system.membus.trans_dist::WritebackDirty          112                       # Transaction distribution
system.membus.pkt_count_system.cache.mem_side::system.mem_ctrl.port         1360                       # Packet count per connected master and slave (bytes)
system.membus.pkt_count::total                   1360                       # Packet count per connected master and slave (bytes)
system.membus.pkt_size_system.cache.mem_side::system.mem_ctrl.port        47104                       # Cumulative packet size per connected master and slave (bytes)
system.membus.pkt_size::total                   47104                       # Cumulative packet size per connected master and slave (bytes)
system.membus.snoops                                0                       # Total snoops (count)
system.membus.snoopTraffic                          0                       # Total snoop traffic (bytes)
system.membus.snoop_fanout::samples               624                       # Request fanout histogram
system.membus.snoop_fanout::mean                    0                       # Request fanout histogram
system.membus.snoop_fanout::stdev                   0                       # Request fanout histogram
system.membus.snoop_fanout::underflows              0      0.00%      0.00% # Request fanout histogram
system.membus.snoop_fanout::0                     624    100.00%    100.00% # Request fanout histogram
system.membus.snoop_fanout::overflows               0      0.00%    100.00% # Request fanout histogram
system.membus.snoop_fanout::min_value               0                       # Request fanout histogram
system.membus.snoop_fanout::max_value               0                       # Request fanout histogram
system.membus.snoop_fanout::total                 624                       # Request fanout histogram
system.membus.reqLayer0.occupancy             1184000                       # Layer occupancy (ticks)
system.membus.reqLayer0.utilization               2.4                       # Layer utilization (%)
system.membus.respLayer0.occupancy            3302000                       # Layer occupancy (ticks)
system.membus.respLayer0.utilization              6.6                       # Layer utilization (%)

---------- End Simulation Statistics   ----------
