FIFOqueens8

---------- Begin Simulation Statistics ----------
sim_seconds                                  0.000187                       # Number of seconds simulated
sim_ticks                                   187485000                       # Number of ticks simulated
host_seconds                                     0.21                       # Real time elapsed on the host
sim_insts                                      169223                       # Number of instructions simulated
sim_ops                                        321054                       # Number of ops (including micro ops) simulated


 ----- L1 Data Cache

system.cpu.dcache.tags.replacements              9914                       # number of replacements
system.cpu.dcache.overall_hits::cpu.data        49273                       # number of overall hits
system.cpu.dcache.overall_misses::cpu.data         9930                       # number of overall misses
system.cpu.dcache.overall_accesses::cpu.data        59203                       # number of overall (read+write) accesses
system.cpu.dcache.overall_miss_rate::total     0.167728                       # miss rate for overall accesses

 ----- L1 Instruction Cache

system.cpu.icache.tags.replacements              5350                       # number of replacements
system.cpu.icache.overall_hits::cpu.inst       217774                       # number of overall hits
system.cpu.icache.overall_misses::cpu.inst         5366                       # number of overall misses
system.cpu.icache.overall_accesses::cpu.inst       223140                       # number of overall (read+write) accesses
system.cpu.icache.overall_miss_rate::total     0.024048                       # miss rate for overall accesses

 ----- L2 Cache

system.l2.tags.replacements                     19488                       # number of replacements
system.l2.overall_hits::total                    2193                       # number of overall hits
system.l2.overall_misses::total                 13103                       # number of overall misses
system.l2.overall_accesses::total               15296                       # number of overall (read+write) accesses
system.l2.overall_miss_rate::total           0.856629                       # miss rate for overall accesses
