FIFOqueens20

---------- Begin Simulation Statistics ----------
sim_seconds                                  0.047050                       # Number of seconds simulated
sim_ticks                                 47050334500                       # Number of ticks simulated
host_seconds                                    28.10                       # Real time elapsed on the host
sim_insts                                    40556533                       # Number of instructions simulated
sim_ops                                      82338382                       # Number of ops (including micro ops) simulated


 ----- L1 Data Cache

system.cpu.dcache.tags.replacements            466043                       # number of replacements
system.cpu.dcache.overall_hits::cpu.data     10350712                       # number of overall hits
system.cpu.dcache.overall_misses::cpu.data       466059                       # number of overall misses
system.cpu.dcache.overall_accesses::cpu.data     10816771                       # number of overall (read+write) accesses
system.cpu.dcache.overall_miss_rate::total     0.043087                       # miss rate for overall accesses

 ----- L1 Instruction Cache

system.cpu.icache.tags.replacements              5577                       # number of replacements
system.cpu.icache.overall_hits::cpu.inst     52313228                       # number of overall hits
system.cpu.icache.overall_misses::cpu.inst         5593                       # number of overall misses
system.cpu.icache.overall_accesses::cpu.inst     52318821                       # number of overall (read+write) accesses
system.cpu.icache.overall_miss_rate::total     0.000107                       # miss rate for overall accesses

 ----- L2 Cache

system.l2.tags.replacements                     19582                       # number of replacements
system.l2.overall_hits::total                  458490                       # number of overall hits
system.l2.overall_misses::total                 13162                       # number of overall misses
system.l2.overall_accesses::total              471652                       # number of overall (read+write) accesses
system.l2.overall_miss_rate::total           0.027906                       # miss rate for overall accesses
