FIFOqueens12

---------- Begin Simulation Statistics ----------
sim_seconds                                  0.000234                       # Number of seconds simulated
sim_ticks                                   233820000                       # Number of ticks simulated
host_seconds                                     0.24                       # Real time elapsed on the host
sim_insts                                      208020                       # Number of instructions simulated
sim_ops                                        402236                       # Number of ops (including micro ops) simulated


 ----- L1 Data Cache

system.cpu.dcache.tags.replacements             10469                       # number of replacements
system.cpu.dcache.overall_hits::cpu.data        63561                       # number of overall hits
system.cpu.dcache.overall_misses::cpu.data        10485                       # number of overall misses
system.cpu.dcache.overall_accesses::cpu.data        74046                       # number of overall (read+write) accesses
system.cpu.dcache.overall_miss_rate::total     0.141601                       # miss rate for overall accesses

 ----- L1 Instruction Cache

system.cpu.icache.tags.replacements              5425                       # number of replacements
system.cpu.icache.overall_hits::cpu.inst       267984                       # number of overall hits
system.cpu.icache.overall_misses::cpu.inst         5441                       # number of overall misses
system.cpu.icache.overall_accesses::cpu.inst       273425                       # number of overall (read+write) accesses
system.cpu.icache.overall_miss_rate::total     0.019899                       # miss rate for overall accesses

 ----- L2 Cache

system.l2.tags.replacements                     19530                       # number of replacements
system.l2.overall_hits::total                    2800                       # number of overall hits
system.l2.overall_misses::total                 13126                       # number of overall misses
system.l2.overall_accesses::total               15926                       # number of overall (read+write) accesses
system.l2.overall_miss_rate::total           0.824187                       # miss rate for overall accesses
