FIFOcolumn

---------- Begin Simulation Statistics ----------
sim_seconds                                  0.017945                       # Number of seconds simulated
sim_ticks                                 17944563500                       # Number of ticks simulated
host_seconds                                    29.71                       # Real time elapsed on the host
sim_insts                                    15227150                       # Number of instructions simulated
sim_ops                                      30215426                       # Number of ops (including micro ops) simulated


 ----- L1 Data Cache

system.cpu.dcache.tags.replacements            837064                       # number of replacements
system.cpu.dcache.overall_hits::cpu.data      5550756                       # number of overall hits
system.cpu.dcache.overall_misses::cpu.data       837080                       # number of overall misses
system.cpu.dcache.overall_accesses::cpu.data      6387836                       # number of overall (read+write) accesses
system.cpu.dcache.overall_miss_rate::total     0.131043                       # miss rate for overall accesses

 ----- L1 Instruction Cache

system.cpu.icache.tags.replacements           1942273                       # number of replacements
system.cpu.icache.overall_hits::cpu.inst     18958563                       # number of overall hits
system.cpu.icache.overall_misses::cpu.inst      1942289                       # number of overall misses
system.cpu.icache.overall_accesses::cpu.inst     20900852                       # number of overall (read+write) accesses
system.cpu.icache.overall_miss_rate::total     0.092929                       # miss rate for overall accesses

 ----- L2 Cache

system.l2.tags.replacements                   3507107                       # number of replacements
system.l2.overall_hits::total                  408126                       # number of overall hits
system.l2.overall_misses::total               2371243                       # number of overall misses
system.l2.overall_accesses::total             2779369                       # number of overall (read+write) accesses
system.l2.overall_miss_rate::total           0.853159                       # miss rate for overall accesses
