FIFOrow50

---------- Begin Simulation Statistics ----------
sim_seconds                                  0.004474                       # Number of seconds simulated
sim_ticks                                  4473993000                       # Number of ticks simulated
host_seconds                                     7.40                       # Real time elapsed on the host
sim_insts                                     3793501                       # Number of instructions simulated
sim_ops                                       7530142                       # Number of ops (including micro ops) simulated


 ----- L1 Data Cache

system.cpu.dcache.tags.replacements            231313                       # number of replacements
system.cpu.dcache.overall_hits::cpu.data      1367146                       # number of overall hits
system.cpu.dcache.overall_misses::cpu.data       231329                       # number of overall misses
system.cpu.dcache.overall_accesses::cpu.data      1598475                       # number of overall (read+write) accesses
system.cpu.dcache.overall_miss_rate::total     0.144719                       # miss rate for overall accesses

 ----- L1 Instruction Cache

system.cpu.icache.tags.replacements            486373                       # number of replacements
system.cpu.icache.overall_hits::cpu.inst      4724957                       # number of overall hits
system.cpu.icache.overall_misses::cpu.inst       486389                       # number of overall misses
system.cpu.icache.overall_accesses::cpu.inst      5211346                       # number of overall (read+write) accesses
system.cpu.icache.overall_miss_rate::total     0.093333                       # miss rate for overall accesses

 ----- L2 Cache

system.l2.tags.replacements                    935659                       # number of replacements
system.l2.overall_hits::total                  102619                       # number of overall hits
system.l2.overall_misses::total                615099                       # number of overall misses
system.l2.overall_accesses::total              717718                       # number of overall (read+write) accesses
system.l2.overall_miss_rate::total           0.857020                       # miss rate for overall accesses
