FIFOptrsStruct

---------- Begin Simulation Statistics ----------
sim_seconds                                  0.000008                       # Number of seconds simulated
sim_ticks                                     8074000                       # Number of ticks simulated
host_seconds                                     0.03                       # Real time elapsed on the host
sim_insts                                        7120                       # Number of instructions simulated
sim_ops                                         14005                       # Number of ops (including micro ops) simulated


 ----- L1 Data Cache

system.cpu.dcache.tags.replacements               420                       # number of replacements
system.cpu.dcache.overall_hits::cpu.data         2468                       # number of overall hits
system.cpu.dcache.overall_misses::cpu.data          436                       # number of overall misses
system.cpu.dcache.overall_accesses::cpu.data         2904                       # number of overall (read+write) accesses
system.cpu.dcache.overall_miss_rate::total     0.150138                       # miss rate for overall accesses

 ----- L1 Instruction Cache

system.cpu.icache.tags.replacements               495                       # number of replacements
system.cpu.icache.overall_hits::cpu.inst         8753                       # number of overall hits
system.cpu.icache.overall_misses::cpu.inst          511                       # number of overall misses
system.cpu.icache.overall_accesses::cpu.inst         9264                       # number of overall (read+write) accesses
system.cpu.icache.overall_miss_rate::total     0.055160                       # miss rate for overall accesses

 ----- L2 Cache

system.l2.tags.replacements                      1414                       # number of replacements
system.l2.overall_hits::total                      99                       # number of overall hits
system.l2.overall_misses::total                   848                       # number of overall misses
system.l2.overall_accesses::total                 947                       # number of overall (read+write) accesses
system.l2.overall_miss_rate::total           0.895459                       # miss rate for overall accesses
