LRUprint1st

---------- Begin Simulation Statistics ----------
sim_seconds                                  0.004481                       # Number of seconds simulated
sim_ticks                                  4480933500                       # Number of ticks simulated
host_seconds                                     7.26                       # Real time elapsed on the host
sim_insts                                     3798542                       # Number of instructions simulated
sim_ops                                       7539744                       # Number of ops (including micro ops) simulated


 ----- L1 Data Cache

system.cpu.dcache.tags.replacements            195964                       # number of replacements
system.cpu.dcache.overall_hits::cpu.data      1404247                       # number of overall hits
system.cpu.dcache.overall_misses::cpu.data       195980                       # number of overall misses
system.cpu.dcache.overall_accesses::cpu.data      1600227                       # number of overall (read+write) accesses
system.cpu.dcache.overall_miss_rate::total     0.122470                       # miss rate for overall accesses

 ----- L1 Instruction Cache

system.cpu.icache.tags.replacements            419298                       # number of replacements
system.cpu.icache.overall_hits::cpu.inst      4801352                       # number of overall hits
system.cpu.icache.overall_misses::cpu.inst       419314                       # number of overall misses
system.cpu.icache.overall_accesses::cpu.inst      5220666                       # number of overall (read+write) accesses
system.cpu.icache.overall_miss_rate::total     0.080318                       # miss rate for overall accesses

 ----- L2 Cache

system.l2.tags.replacements                    928417                       # number of replacements
system.l2.overall_hits::total                   56492                       # number of overall hits
system.l2.overall_misses::total                558802                       # number of overall misses
system.l2.overall_accesses::total              615294                       # number of overall (read+write) accesses
system.l2.overall_miss_rate::total           0.908187                       # miss rate for overall accesses
