LRUrow50

---------- Begin Simulation Statistics ----------
sim_seconds                                  0.004474                       # Number of seconds simulated
sim_ticks                                  4473993000                       # Number of ticks simulated
host_seconds                                     7.41                       # Real time elapsed on the host
sim_insts                                     3793501                       # Number of instructions simulated
sim_ops                                       7530142                       # Number of ops (including micro ops) simulated


 ----- L1 Data Cache

system.cpu.dcache.tags.replacements            200742                       # number of replacements
system.cpu.dcache.overall_hits::cpu.data      1397717                       # number of overall hits
system.cpu.dcache.overall_misses::cpu.data       200758                       # number of overall misses
system.cpu.dcache.overall_accesses::cpu.data      1598475                       # number of overall (read+write) accesses
system.cpu.dcache.overall_miss_rate::total     0.125593                       # miss rate for overall accesses

 ----- L1 Instruction Cache

system.cpu.icache.tags.replacements            478871                       # number of replacements
system.cpu.icache.overall_hits::cpu.inst      4732459                       # number of overall hits
system.cpu.icache.overall_misses::cpu.inst       478887                       # number of overall misses
system.cpu.icache.overall_accesses::cpu.inst      5211346                       # number of overall (read+write) accesses
system.cpu.icache.overall_miss_rate::total     0.091893                       # miss rate for overall accesses

 ----- L2 Cache

system.l2.tags.replacements                   1011397                       # number of replacements
system.l2.overall_hits::total                   63974                       # number of overall hits
system.l2.overall_misses::total                615671                       # number of overall misses
system.l2.overall_accesses::total              679645                       # number of overall (read+write) accesses
system.l2.overall_miss_rate::total           0.905871                       # miss rate for overall accesses
