LRUtightLoop

---------- Begin Simulation Statistics ----------
sim_seconds                                  0.029010                       # Number of seconds simulated
sim_ticks                                 29009559000                       # Number of ticks simulated
host_seconds                                    19.22                       # Real time elapsed on the host
sim_insts                                    20008370                       # Number of instructions simulated
sim_ops                                      45016440                       # Number of ops (including micro ops) simulated


 ----- L1 Data Cache

system.cpu.dcache.tags.replacements             62956                       # number of replacements
system.cpu.dcache.overall_hits::cpu.data     16940376                       # number of overall hits
system.cpu.dcache.overall_misses::cpu.data        62972                       # number of overall misses
system.cpu.dcache.overall_accesses::cpu.data     17003348                       # number of overall (read+write) accesses
system.cpu.dcache.overall_miss_rate::total     0.003704                       # miss rate for overall accesses

 ----- L1 Instruction Cache

system.cpu.icache.tags.replacements               714                       # number of replacements
system.cpu.icache.overall_hits::cpu.inst     33010319                       # number of overall hits
system.cpu.icache.overall_misses::cpu.inst          730                       # number of overall misses
system.cpu.icache.overall_accesses::cpu.inst     33011049                       # number of overall (read+write) accesses
system.cpu.icache.overall_miss_rate::total     0.000022                       # miss rate for overall accesses

 ----- L2 Cache

system.l2.tags.replacements                     95563                       # number of replacements
system.l2.overall_hits::total                     116                       # number of overall hits
system.l2.overall_misses::total                 63586                       # number of overall misses
system.l2.overall_accesses::total               63702                       # number of overall (read+write) accesses
system.l2.overall_miss_rate::total           0.998179                       # miss rate for overall accesses
