RANDqueens12

---------- Begin Simulation Statistics ----------
sim_seconds                                  0.000234                       # Number of seconds simulated
sim_ticks                                   233820000                       # Number of ticks simulated
host_seconds                                     0.25                       # Real time elapsed on the host
sim_insts                                      208020                       # Number of instructions simulated
sim_ops                                        402236                       # Number of ops (including micro ops) simulated


 ----- L1 Data Cache

system.cpu.dcache.tags.replacements             11085                       # number of replacements
system.cpu.dcache.overall_hits::cpu.data        62945                       # number of overall hits
system.cpu.dcache.overall_misses::cpu.data        11101                       # number of overall misses
system.cpu.dcache.overall_accesses::cpu.data        74046                       # number of overall (read+write) accesses
system.cpu.dcache.overall_miss_rate::total     0.149920                       # miss rate for overall accesses

 ----- L1 Instruction Cache

system.cpu.icache.tags.replacements              5573                       # number of replacements
system.cpu.icache.overall_hits::cpu.inst       267836                       # number of overall hits
system.cpu.icache.overall_misses::cpu.inst         5589                       # number of overall misses
system.cpu.icache.overall_accesses::cpu.inst       273425                       # number of overall (read+write) accesses
system.cpu.icache.overall_miss_rate::total     0.020441                       # miss rate for overall accesses

 ----- L2 Cache

system.l2.tags.replacements                     17284                       # number of replacements
system.l2.overall_hits::total                    4442                       # number of overall hits
system.l2.overall_misses::total                 12248                       # number of overall misses
system.l2.overall_accesses::total               16690                       # number of overall (read+write) accesses
system.l2.overall_miss_rate::total           0.733853                       # miss rate for overall accesses
