RANDcolumn

---------- Begin Simulation Statistics ----------
sim_seconds                                  0.017945                       # Number of seconds simulated
sim_ticks                                 17944563500                       # Number of ticks simulated
host_seconds                                    30.53                       # Real time elapsed on the host
sim_insts                                    15227150                       # Number of instructions simulated
sim_ops                                      30215426                       # Number of ops (including micro ops) simulated


 ----- L1 Data Cache

system.cpu.dcache.tags.replacements            888993                       # number of replacements
system.cpu.dcache.overall_hits::cpu.data      5498827                       # number of overall hits
system.cpu.dcache.overall_misses::cpu.data       889009                       # number of overall misses
system.cpu.dcache.overall_accesses::cpu.data      6387836                       # number of overall (read+write) accesses
system.cpu.dcache.overall_miss_rate::total     0.139172                       # miss rate for overall accesses

 ----- L1 Instruction Cache

system.cpu.icache.tags.replacements           2003189                       # number of replacements
system.cpu.icache.overall_hits::cpu.inst     18897647                       # number of overall hits
system.cpu.icache.overall_misses::cpu.inst      2003205                       # number of overall misses
system.cpu.icache.overall_accesses::cpu.inst     20900852                       # number of overall (read+write) accesses
system.cpu.icache.overall_miss_rate::total     0.095843                       # miss rate for overall accesses

 ----- L2 Cache

system.l2.tags.replacements                   3727096                       # number of replacements
system.l2.overall_hits::total                  442251                       # number of overall hits
system.l2.overall_misses::total               2449963                       # number of overall misses
system.l2.overall_accesses::total             2892214                       # number of overall (read+write) accesses
system.l2.overall_miss_rate::total           0.847089                       # miss rate for overall accesses
