FIFObackwardsrow

---------- Begin Simulation Statistics ----------
sim_seconds                                  0.004475                       # Number of seconds simulated
sim_ticks                                  4474651000                       # Number of ticks simulated
host_seconds                                     7.38                       # Real time elapsed on the host
sim_insts                                     3791524                       # Number of instructions simulated
sim_ops                                       7531373                       # Number of ops (including micro ops) simulated


 ----- L1 Data Cache

system.cpu.dcache.tags.replacements            226019                       # number of replacements
system.cpu.dcache.overall_hits::cpu.data      1370065                       # number of overall hits
system.cpu.dcache.overall_misses::cpu.data       226035                       # number of overall misses
system.cpu.dcache.overall_accesses::cpu.data      1596100                       # number of overall (read+write) accesses
system.cpu.dcache.overall_miss_rate::total     0.141617                       # miss rate for overall accesses

 ----- L1 Instruction Cache

system.cpu.icache.tags.replacements            463919                       # number of replacements
system.cpu.icache.overall_hits::cpu.inst      4745519                       # number of overall hits
system.cpu.icache.overall_misses::cpu.inst       463935                       # number of overall misses
system.cpu.icache.overall_accesses::cpu.inst      5209454                       # number of overall (read+write) accesses
system.cpu.icache.overall_miss_rate::total     0.089056                       # miss rate for overall accesses

 ----- L2 Cache

system.l2.tags.replacements                    890475                       # number of replacements
system.l2.overall_hits::total                   72521                       # number of overall hits
system.l2.overall_misses::total                617449                       # number of overall misses
system.l2.overall_accesses::total              689970                       # number of overall (read+write) accesses
system.l2.overall_miss_rate::total           0.894893                       # miss rate for overall accesses
