FIFOmatmul

---------- Begin Simulation Statistics ----------
sim_seconds                                  0.011516                       # Number of seconds simulated
sim_ticks                                 11515544500                       # Number of ticks simulated
host_seconds                                     8.06                       # Real time elapsed on the host
sim_insts                                    10011077                       # Number of instructions simulated
sim_ops                                      17383611                       # Number of ops (including micro ops) simulated


 ----- L1 Data Cache

system.cpu.dcache.tags.replacements            817702                       # number of replacements
system.cpu.dcache.overall_hits::cpu.data      2272488                       # number of overall hits
system.cpu.dcache.overall_misses::cpu.data       817718                       # number of overall misses
system.cpu.dcache.overall_accesses::cpu.data      3090206                       # number of overall (read+write) accesses
system.cpu.dcache.overall_miss_rate::total     0.264616                       # miss rate for overall accesses

 ----- L1 Instruction Cache

system.cpu.icache.tags.replacements             70329                       # number of replacements
system.cpu.icache.overall_hits::cpu.inst     15588211                       # number of overall hits
system.cpu.icache.overall_misses::cpu.inst        70345                       # number of overall misses
system.cpu.icache.overall_accesses::cpu.inst     15658556                       # number of overall (read+write) accesses
system.cpu.icache.overall_miss_rate::total     0.004492                       # miss rate for overall accesses

 ----- L2 Cache

system.l2.tags.replacements                    707615                       # number of replacements
system.l2.overall_hits::total                  186927                       # number of overall hits
system.l2.overall_misses::total                701136                       # number of overall misses
system.l2.overall_accesses::total              888063                       # number of overall (read+write) accesses
system.l2.overall_miss_rate::total           0.789512                       # miss rate for overall accesses
