FIFOrow50

---------- Begin Simulation Statistics ----------
sim_seconds                                  0.004474                       # Number of seconds simulated
sim_ticks                                  4473993000                       # Number of ticks simulated
host_seconds                                     7.36                       # Real time elapsed on the host
sim_insts                                     3793501                       # Number of instructions simulated
sim_ops                                       7530142                       # Number of ops (including micro ops) simulated


 ----- L1 Data Cache

system.cpu.dcache.tags.replacements            223202                       # number of replacements
system.cpu.dcache.overall_hits::cpu.data      1375257                       # number of overall hits
system.cpu.dcache.overall_misses::cpu.data       223218                       # number of overall misses
system.cpu.dcache.overall_accesses::cpu.data      1598475                       # number of overall (read+write) accesses
system.cpu.dcache.overall_miss_rate::total     0.139644                       # miss rate for overall accesses

 ----- L1 Instruction Cache

system.cpu.icache.tags.replacements            488663                       # number of replacements
system.cpu.icache.overall_hits::cpu.inst      4722667                       # number of overall hits
system.cpu.icache.overall_misses::cpu.inst       488679                       # number of overall misses
system.cpu.icache.overall_accesses::cpu.inst      5211346                       # number of overall (read+write) accesses
system.cpu.icache.overall_miss_rate::total     0.093772                       # miss rate for overall accesses

 ----- L2 Cache

system.l2.tags.replacements                    894699                       # number of replacements
system.l2.overall_hits::total                   86639                       # number of overall hits
system.l2.overall_misses::total                625258                       # number of overall misses
system.l2.overall_accesses::total              711897                       # number of overall (read+write) accesses
system.l2.overall_miss_rate::total           0.878298                       # miss rate for overall accesses
