FIFOqueens25

---------- Begin Simulation Statistics ----------
sim_seconds                                  0.014163                       # Number of seconds simulated
sim_ticks                                 14162533000                       # Number of ticks simulated
host_seconds                                     8.32                       # Real time elapsed on the host
sim_insts                                    12217933                       # Number of instructions simulated
sim_ops                                      24822555                       # Number of ops (including micro ops) simulated


 ----- L1 Data Cache

system.cpu.dcache.tags.replacements            287360                       # number of replacements
system.cpu.dcache.overall_hits::cpu.data      2849674                       # number of overall hits
system.cpu.dcache.overall_misses::cpu.data       287376                       # number of overall misses
system.cpu.dcache.overall_accesses::cpu.data      3137050                       # number of overall (read+write) accesses
system.cpu.dcache.overall_miss_rate::total     0.091607                       # miss rate for overall accesses

 ----- L1 Instruction Cache

system.cpu.icache.tags.replacements              9455                       # number of replacements
system.cpu.icache.overall_hits::cpu.inst     15710974                       # number of overall hits
system.cpu.icache.overall_misses::cpu.inst         9471                       # number of overall misses
system.cpu.icache.overall_accesses::cpu.inst     15720445                       # number of overall (read+write) accesses
system.cpu.icache.overall_miss_rate::total     0.000602                       # miss rate for overall accesses

 ----- L2 Cache

system.l2.tags.replacements                     18647                       # number of replacements
system.l2.overall_hits::total                  283780                       # number of overall hits
system.l2.overall_misses::total                 13067                       # number of overall misses
system.l2.overall_accesses::total              296847                       # number of overall (read+write) accesses
system.l2.overall_miss_rate::total           0.044019                       # miss rate for overall accesses
