FIFOptrsStrings

---------- Begin Simulation Statistics ----------
sim_seconds                                  0.000009                       # Number of seconds simulated
sim_ticks                                     8963000                       # Number of ticks simulated
host_seconds                                     0.03                       # Real time elapsed on the host
sim_insts                                        7874                       # Number of instructions simulated
sim_ops                                         15392                       # Number of ops (including micro ops) simulated


 ----- L1 Data Cache

system.cpu.dcache.tags.replacements               517                       # number of replacements
system.cpu.dcache.overall_hits::cpu.data         2734                       # number of overall hits
system.cpu.dcache.overall_misses::cpu.data          533                       # number of overall misses
system.cpu.dcache.overall_accesses::cpu.data         3267                       # number of overall (read+write) accesses
system.cpu.dcache.overall_miss_rate::total     0.163147                       # miss rate for overall accesses

 ----- L1 Instruction Cache

system.cpu.icache.tags.replacements               693                       # number of replacements
system.cpu.icache.overall_hits::cpu.inst         9700                       # number of overall hits
system.cpu.icache.overall_misses::cpu.inst          709                       # number of overall misses
system.cpu.icache.overall_accesses::cpu.inst        10409                       # number of overall (read+write) accesses
system.cpu.icache.overall_miss_rate::total     0.068114                       # miss rate for overall accesses

 ----- L2 Cache

system.l2.tags.replacements                      1571                       # number of replacements
system.l2.overall_hits::total                     234                       # number of overall hits
system.l2.overall_misses::total                  1008                       # number of overall misses
system.l2.overall_accesses::total                1242                       # number of overall (read+write) accesses
system.l2.overall_miss_rate::total           0.811594                       # miss rate for overall accesses
