FIFOptrsStruct

---------- Begin Simulation Statistics ----------
sim_seconds                                  0.000008                       # Number of seconds simulated
sim_ticks                                     8074000                       # Number of ticks simulated
host_seconds                                     0.03                       # Real time elapsed on the host
sim_insts                                        7120                       # Number of instructions simulated
sim_ops                                         14005                       # Number of ops (including micro ops) simulated


 ----- L1 Data Cache

system.cpu.dcache.tags.replacements               567                       # number of replacements
system.cpu.dcache.overall_hits::cpu.data         2321                       # number of overall hits
system.cpu.dcache.overall_misses::cpu.data          583                       # number of overall misses
system.cpu.dcache.overall_accesses::cpu.data         2904                       # number of overall (read+write) accesses
system.cpu.dcache.overall_miss_rate::total     0.200758                       # miss rate for overall accesses

 ----- L1 Instruction Cache

system.cpu.icache.tags.replacements               489                       # number of replacements
system.cpu.icache.overall_hits::cpu.inst         8759                       # number of overall hits
system.cpu.icache.overall_misses::cpu.inst          505                       # number of overall misses
system.cpu.icache.overall_accesses::cpu.inst         9264                       # number of overall (read+write) accesses
system.cpu.icache.overall_miss_rate::total     0.054512                       # miss rate for overall accesses

 ----- L2 Cache

system.l2.tags.replacements                      1354                       # number of replacements
system.l2.overall_hits::total                     225                       # number of overall hits
system.l2.overall_misses::total                   863                       # number of overall misses
system.l2.overall_accesses::total                1088                       # number of overall (read+write) accesses
system.l2.overall_miss_rate::total           0.793199                       # miss rate for overall accesses
