FIFOintTypes

---------- Begin Simulation Statistics ----------
sim_seconds                                  0.000013                       # Number of seconds simulated
sim_ticks                                    12511000                       # Number of ticks simulated
host_seconds                                     0.04                       # Real time elapsed on the host
sim_insts                                       10768                       # Number of instructions simulated
sim_ops                                         21240                       # Number of ops (including micro ops) simulated


 ----- L1 Data Cache

system.cpu.dcache.tags.replacements               703                       # number of replacements
system.cpu.dcache.overall_hits::cpu.data         3714                       # number of overall hits
system.cpu.dcache.overall_misses::cpu.data          719                       # number of overall misses
system.cpu.dcache.overall_accesses::cpu.data         4433                       # number of overall (read+write) accesses
system.cpu.dcache.overall_miss_rate::total     0.162193                       # miss rate for overall accesses

 ----- L1 Instruction Cache

system.cpu.icache.tags.replacements              1107                       # number of replacements
system.cpu.icache.overall_hits::cpu.inst        13428                       # number of overall hits
system.cpu.icache.overall_misses::cpu.inst         1123                       # number of overall misses
system.cpu.icache.overall_accesses::cpu.inst        14551                       # number of overall (read+write) accesses
system.cpu.icache.overall_miss_rate::total     0.077177                       # miss rate for overall accesses

 ----- L2 Cache

system.l2.tags.replacements                      2541                       # number of replacements
system.l2.overall_hits::total                     223                       # number of overall hits
system.l2.overall_misses::total                  1619                       # number of overall misses
system.l2.overall_accesses::total                1842                       # number of overall (read+write) accesses
system.l2.overall_miss_rate::total           0.878936                       # miss rate for overall accesses
