LRUqueens8

---------- Begin Simulation Statistics ----------
sim_seconds                                  0.000187                       # Number of seconds simulated
sim_ticks                                   187485000                       # Number of ticks simulated
host_seconds                                     0.22                       # Real time elapsed on the host
sim_insts                                      169223                       # Number of instructions simulated
sim_ops                                        321054                       # Number of ops (including micro ops) simulated


 ----- L1 Data Cache

system.cpu.dcache.tags.replacements             10185                       # number of replacements
system.cpu.dcache.overall_hits::cpu.data        49002                       # number of overall hits
system.cpu.dcache.overall_misses::cpu.data        10201                       # number of overall misses
system.cpu.dcache.overall_accesses::cpu.data        59203                       # number of overall (read+write) accesses
system.cpu.dcache.overall_miss_rate::total     0.172305                       # miss rate for overall accesses

 ----- L1 Instruction Cache

system.cpu.icache.tags.replacements              5810                       # number of replacements
system.cpu.icache.overall_hits::cpu.inst       217314                       # number of overall hits
system.cpu.icache.overall_misses::cpu.inst         5826                       # number of overall misses
system.cpu.icache.overall_accesses::cpu.inst       223140                       # number of overall (read+write) accesses
system.cpu.icache.overall_miss_rate::total     0.026109                       # miss rate for overall accesses

 ----- L2 Cache

system.l2.tags.replacements                     18335                       # number of replacements
system.l2.overall_hits::total                    3557                       # number of overall hits
system.l2.overall_misses::total                 12470                       # number of overall misses
system.l2.overall_accesses::total               16027                       # number of overall (read+write) accesses
system.l2.overall_miss_rate::total           0.778062                       # miss rate for overall accesses
