LRUqueens12

---------- Begin Simulation Statistics ----------
sim_seconds                                  0.000234                       # Number of seconds simulated
sim_ticks                                   233820000                       # Number of ticks simulated
host_seconds                                     0.25                       # Real time elapsed on the host
sim_insts                                      208020                       # Number of instructions simulated
sim_ops                                        402236                       # Number of ops (including micro ops) simulated


 ----- L1 Data Cache

system.cpu.dcache.tags.replacements             10944                       # number of replacements
system.cpu.dcache.overall_hits::cpu.data        63086                       # number of overall hits
system.cpu.dcache.overall_misses::cpu.data        10960                       # number of overall misses
system.cpu.dcache.overall_accesses::cpu.data        74046                       # number of overall (read+write) accesses
system.cpu.dcache.overall_miss_rate::total     0.148016                       # miss rate for overall accesses

 ----- L1 Instruction Cache

system.cpu.icache.tags.replacements              6353                       # number of replacements
system.cpu.icache.overall_hits::cpu.inst       267056                       # number of overall hits
system.cpu.icache.overall_misses::cpu.inst         6369                       # number of overall misses
system.cpu.icache.overall_accesses::cpu.inst       273425                       # number of overall (read+write) accesses
system.cpu.icache.overall_miss_rate::total     0.023293                       # miss rate for overall accesses

 ----- L2 Cache

system.l2.tags.replacements                     18340                       # number of replacements
system.l2.overall_hits::total                    4847                       # number of overall hits
system.l2.overall_misses::total                 12482                       # number of overall misses
system.l2.overall_accesses::total               17329                       # number of overall (read+write) accesses
system.l2.overall_miss_rate::total           0.720295                       # miss rate for overall accesses
