RANDprocessSpace

---------- Begin Simulation Statistics ----------
sim_seconds                                  0.000013                       # Number of seconds simulated
sim_ticks                                    13421000                       # Number of ticks simulated
host_seconds                                     0.04                       # Real time elapsed on the host
sim_insts                                       11558                       # Number of instructions simulated
sim_ops                                         22802                       # Number of ops (including micro ops) simulated


 ----- L1 Data Cache

system.cpu.dcache.tags.replacements               839                       # number of replacements
system.cpu.dcache.overall_hits::cpu.data         4831                       # number of overall hits
system.cpu.dcache.overall_misses::cpu.data          855                       # number of overall misses
system.cpu.dcache.overall_accesses::cpu.data         5686                       # number of overall (read+write) accesses
system.cpu.dcache.overall_miss_rate::total     0.150369                       # miss rate for overall accesses

 ----- L1 Instruction Cache

system.cpu.icache.tags.replacements               670                       # number of replacements
system.cpu.icache.overall_hits::cpu.inst        14913                       # number of overall hits
system.cpu.icache.overall_misses::cpu.inst          686                       # number of overall misses
system.cpu.icache.overall_accesses::cpu.inst        15599                       # number of overall (read+write) accesses
system.cpu.icache.overall_miss_rate::total     0.043977                       # miss rate for overall accesses

 ----- L2 Cache

system.l2.tags.replacements                      1779                       # number of replacements
system.l2.overall_hits::total                     356                       # number of overall hits
system.l2.overall_misses::total                  1185                       # number of overall misses
system.l2.overall_accesses::total                1541                       # number of overall (read+write) accesses
system.l2.overall_miss_rate::total           0.768981                       # miss rate for overall accesses
