RANDarrLoop

---------- Begin Simulation Statistics ----------
sim_seconds                                  0.024508                       # Number of seconds simulated
sim_ticks                                 24507636000                       # Number of ticks simulated
host_seconds                                    19.22                       # Real time elapsed on the host
sim_insts                                    21006718                       # Number of instructions simulated
sim_ops                                      38013169                       # Number of ops (including micro ops) simulated


 ----- L1 Data Cache

system.cpu.dcache.tags.replacements            141101                       # number of replacements
system.cpu.dcache.overall_hits::cpu.data     13861594                       # number of overall hits
system.cpu.dcache.overall_misses::cpu.data       141117                       # number of overall misses
system.cpu.dcache.overall_accesses::cpu.data     14002711                       # number of overall (read+write) accesses
system.cpu.dcache.overall_miss_rate::total     0.010078                       # miss rate for overall accesses

 ----- L1 Instruction Cache

system.cpu.icache.tags.replacements               580                       # number of replacements
system.cpu.icache.overall_hits::cpu.inst     32008226                       # number of overall hits
system.cpu.icache.overall_misses::cpu.inst          596                       # number of overall misses
system.cpu.icache.overall_accesses::cpu.inst     32008822                       # number of overall (read+write) accesses
system.cpu.icache.overall_miss_rate::total     0.000019                       # miss rate for overall accesses

 ----- L2 Cache

system.l2.tags.replacements                    190236                       # number of replacements
system.l2.overall_hits::total                   15656                       # number of overall hits
system.l2.overall_misses::total                126057                       # number of overall misses
system.l2.overall_accesses::total              141713                       # number of overall (read+write) accesses
system.l2.overall_miss_rate::total           0.889523                       # miss rate for overall accesses
