RANDqueens20

---------- Begin Simulation Statistics ----------
sim_seconds                                  0.047050                       # Number of seconds simulated
sim_ticks                                 47050334500                       # Number of ticks simulated
host_seconds                                    28.76                       # Real time elapsed on the host
sim_insts                                    40556533                       # Number of instructions simulated
sim_ops                                      82338382                       # Number of ops (including micro ops) simulated


 ----- L1 Data Cache

system.cpu.dcache.tags.replacements           1004450                       # number of replacements
system.cpu.dcache.overall_hits::cpu.data      9812305                       # number of overall hits
system.cpu.dcache.overall_misses::cpu.data      1004466                       # number of overall misses
system.cpu.dcache.overall_accesses::cpu.data     10816771                       # number of overall (read+write) accesses
system.cpu.dcache.overall_miss_rate::total     0.092862                       # miss rate for overall accesses

 ----- L1 Instruction Cache

system.cpu.icache.tags.replacements              7166                       # number of replacements
system.cpu.icache.overall_hits::cpu.inst     52311639                       # number of overall hits
system.cpu.icache.overall_misses::cpu.inst         7182                       # number of overall misses
system.cpu.icache.overall_accesses::cpu.inst     52318821                       # number of overall (read+write) accesses
system.cpu.icache.overall_miss_rate::total     0.000137                       # miss rate for overall accesses

 ----- L2 Cache

system.l2.tags.replacements                     17166                       # number of replacements
system.l2.overall_hits::total                  999463                       # number of overall hits
system.l2.overall_misses::total                 12185                       # number of overall misses
system.l2.overall_accesses::total             1011648                       # number of overall (read+write) accesses
system.l2.overall_miss_rate::total           0.012045                       # miss rate for overall accesses
