RANDtightLoop

---------- Begin Simulation Statistics ----------
sim_seconds                                  0.029010                       # Number of seconds simulated
sim_ticks                                 29009559000                       # Number of ticks simulated
host_seconds                                    20.81                       # Real time elapsed on the host
sim_insts                                    20008370                       # Number of instructions simulated
sim_ops                                      45016440                       # Number of ops (including micro ops) simulated


 ----- L1 Data Cache

system.cpu.dcache.tags.replacements             70900                       # number of replacements
system.cpu.dcache.overall_hits::cpu.data     16932432                       # number of overall hits
system.cpu.dcache.overall_misses::cpu.data        70916                       # number of overall misses
system.cpu.dcache.overall_accesses::cpu.data     17003348                       # number of overall (read+write) accesses
system.cpu.dcache.overall_miss_rate::total     0.004171                       # miss rate for overall accesses

 ----- L1 Instruction Cache

system.cpu.icache.tags.replacements               729                       # number of replacements
system.cpu.icache.overall_hits::cpu.inst     33010304                       # number of overall hits
system.cpu.icache.overall_misses::cpu.inst          745                       # number of overall misses
system.cpu.icache.overall_accesses::cpu.inst     33011049                       # number of overall (read+write) accesses
system.cpu.icache.overall_miss_rate::total     0.000023                       # miss rate for overall accesses

 ----- L2 Cache

system.l2.tags.replacements                     96016                       # number of replacements
system.l2.overall_hits::total                    8037                       # number of overall hits
system.l2.overall_misses::total                 63624                       # number of overall misses
system.l2.overall_accesses::total               71661                       # number of overall (read+write) accesses
system.l2.overall_miss_rate::total           0.887847                       # miss rate for overall accesses
