FIFOcolumn

---------- Begin Simulation Statistics ----------
sim_seconds                                  0.017945                       # Number of seconds simulated
sim_ticks                                 17944563500                       # Number of ticks simulated
host_seconds                                    28.81                       # Real time elapsed on the host
sim_insts                                    15227150                       # Number of instructions simulated
sim_ops                                      30215426                       # Number of ops (including micro ops) simulated


 ----- L1 Data Cache

system.cpu.dcache.tags.replacements           1024492                       # number of replacements
system.cpu.dcache.overall_hits::cpu.data      5363328                       # number of overall hits
system.cpu.dcache.overall_misses::cpu.data      1024508                       # number of overall misses
system.cpu.dcache.overall_accesses::cpu.data      6387836                       # number of overall (read+write) accesses
system.cpu.dcache.overall_miss_rate::total     0.160384                       # miss rate for overall accesses

 ----- L1 Instruction Cache

system.cpu.icache.tags.replacements           1961992                       # number of replacements
system.cpu.icache.overall_hits::cpu.inst     18938844                       # number of overall hits
system.cpu.icache.overall_misses::cpu.inst      1962008                       # number of overall misses
system.cpu.icache.overall_accesses::cpu.inst     20900852                       # number of overall (read+write) accesses
system.cpu.icache.overall_miss_rate::total     0.093872                       # miss rate for overall accesses

 ----- L2 Cache

system.l2.tags.replacements                   4338395                       # number of replacements
system.l2.overall_hits::total                  548889                       # number of overall hits
system.l2.overall_misses::total               2437627                       # number of overall misses
system.l2.overall_accesses::total             2986516                       # number of overall (read+write) accesses
system.l2.overall_miss_rate::total           0.816211                       # miss rate for overall accesses
