FIFOptrsStruct

---------- Begin Simulation Statistics ----------
sim_seconds                                  0.000008                       # Number of seconds simulated
sim_ticks                                     8074000                       # Number of ticks simulated
host_seconds                                     0.03                       # Real time elapsed on the host
sim_insts                                        7120                       # Number of instructions simulated
sim_ops                                         14005                       # Number of ops (including micro ops) simulated


 ----- L1 Data Cache

system.cpu.dcache.tags.replacements               566                       # number of replacements
system.cpu.dcache.overall_hits::cpu.data         2322                       # number of overall hits
system.cpu.dcache.overall_misses::cpu.data          582                       # number of overall misses
system.cpu.dcache.overall_accesses::cpu.data         2904                       # number of overall (read+write) accesses
system.cpu.dcache.overall_miss_rate::total     0.200413                       # miss rate for overall accesses

 ----- L1 Instruction Cache

system.cpu.icache.tags.replacements               523                       # number of replacements
system.cpu.icache.overall_hits::cpu.inst         8725                       # number of overall hits
system.cpu.icache.overall_misses::cpu.inst          539                       # number of overall misses
system.cpu.icache.overall_accesses::cpu.inst         9264                       # number of overall (read+write) accesses
system.cpu.icache.overall_miss_rate::total     0.058182                       # miss rate for overall accesses

 ----- L2 Cache

system.l2.tags.replacements                      1486                       # number of replacements
system.l2.overall_hits::total                     218                       # number of overall hits
system.l2.overall_misses::total                   903                       # number of overall misses
system.l2.overall_accesses::total                1121                       # number of overall (read+write) accesses
system.l2.overall_miss_rate::total           0.805531                       # miss rate for overall accesses
