RANDqueens12

---------- Begin Simulation Statistics ----------
sim_seconds                                  0.000234                       # Number of seconds simulated
sim_ticks                                   233820000                       # Number of ticks simulated
host_seconds                                     0.25                       # Real time elapsed on the host
sim_insts                                      208020                       # Number of instructions simulated
sim_ops                                        402236                       # Number of ops (including micro ops) simulated


 ----- L1 Data Cache

system.cpu.dcache.tags.replacements             13630                       # number of replacements
system.cpu.dcache.overall_hits::cpu.data        60400                       # number of overall hits
system.cpu.dcache.overall_misses::cpu.data        13646                       # number of overall misses
system.cpu.dcache.overall_accesses::cpu.data        74046                       # number of overall (read+write) accesses
system.cpu.dcache.overall_miss_rate::total     0.184291                       # miss rate for overall accesses

 ----- L1 Instruction Cache

system.cpu.icache.tags.replacements              7077                       # number of replacements
system.cpu.icache.overall_hits::cpu.inst       266332                       # number of overall hits
system.cpu.icache.overall_misses::cpu.inst         7093                       # number of overall misses
system.cpu.icache.overall_accesses::cpu.inst       273425                       # number of overall (read+write) accesses
system.cpu.icache.overall_miss_rate::total     0.025941                       # miss rate for overall accesses

 ----- L2 Cache

system.l2.tags.replacements                     22393                       # number of replacements
system.l2.overall_hits::total                    6563                       # number of overall hits
system.l2.overall_misses::total                 14176                       # number of overall misses
system.l2.overall_accesses::total               20739                       # number of overall (read+write) accesses
system.l2.overall_miss_rate::total           0.683543                       # miss rate for overall accesses
