RANDrow

---------- Begin Simulation Statistics ----------
sim_seconds                                  0.017945                       # Number of seconds simulated
sim_ticks                                 17944541000                       # Number of ticks simulated
host_seconds                                    29.89                       # Real time elapsed on the host
sim_insts                                    15227129                       # Number of instructions simulated
sim_ops                                      30215384                       # Number of ops (including micro ops) simulated


 ----- L1 Data Cache

system.cpu.dcache.tags.replacements           1022147                       # number of replacements
system.cpu.dcache.overall_hits::cpu.data      5365669                       # number of overall hits
system.cpu.dcache.overall_misses::cpu.data      1022163                       # number of overall misses
system.cpu.dcache.overall_accesses::cpu.data      6387832                       # number of overall (read+write) accesses
system.cpu.dcache.overall_miss_rate::total     0.160017                       # miss rate for overall accesses

 ----- L1 Instruction Cache

system.cpu.icache.tags.replacements           1961992                       # number of replacements
system.cpu.icache.overall_hits::cpu.inst     18938820                       # number of overall hits
system.cpu.icache.overall_misses::cpu.inst      1962008                       # number of overall misses
system.cpu.icache.overall_accesses::cpu.inst     20900828                       # number of overall (read+write) accesses
system.cpu.icache.overall_miss_rate::total     0.093872                       # miss rate for overall accesses

 ----- L2 Cache

system.l2.tags.replacements                   4335535                       # number of replacements
system.l2.overall_hits::total                  548977                       # number of overall hits
system.l2.overall_misses::total               2435194                       # number of overall misses
system.l2.overall_accesses::total             2984171                       # number of overall (read+write) accesses
system.l2.overall_miss_rate::total           0.816037                       # miss rate for overall accesses
