RANDprocessSpace

---------- Begin Simulation Statistics ----------
sim_seconds                                  0.000013                       # Number of seconds simulated
sim_ticks                                    13421000                       # Number of ticks simulated
host_seconds                                     0.04                       # Real time elapsed on the host
sim_insts                                       11558                       # Number of instructions simulated
sim_ops                                         22802                       # Number of ops (including micro ops) simulated


 ----- L1 Data Cache

system.cpu.dcache.tags.replacements               877                       # number of replacements
system.cpu.dcache.overall_hits::cpu.data         4793                       # number of overall hits
system.cpu.dcache.overall_misses::cpu.data          893                       # number of overall misses
system.cpu.dcache.overall_accesses::cpu.data         5686                       # number of overall (read+write) accesses
system.cpu.dcache.overall_miss_rate::total     0.157052                       # miss rate for overall accesses

 ----- L1 Instruction Cache

system.cpu.icache.tags.replacements               676                       # number of replacements
system.cpu.icache.overall_hits::cpu.inst        14907                       # number of overall hits
system.cpu.icache.overall_misses::cpu.inst          692                       # number of overall misses
system.cpu.icache.overall_accesses::cpu.inst        15599                       # number of overall (read+write) accesses
system.cpu.icache.overall_miss_rate::total     0.044362                       # miss rate for overall accesses

 ----- L2 Cache

system.l2.tags.replacements                      1927                       # number of replacements
system.l2.overall_hits::total                     369                       # number of overall hits
system.l2.overall_misses::total                  1216                       # number of overall misses
system.l2.overall_accesses::total                1585                       # number of overall (read+write) accesses
system.l2.overall_miss_rate::total           0.767192                       # miss rate for overall accesses
