
---------- Begin Simulation Statistics ----------
sim_seconds                                  0.066842                       # Number of seconds simulated
sim_ticks                                 66841504000                       # Number of ticks simulated
final_tick                                66841504000                       # Number of ticks from beginning of simulation (restored from checkpoints and never reset)
sim_freq                                 1000000000000                       # Frequency of simulated ticks
host_inst_rate                                1145839                       # Simulator instruction rate (inst/s)
host_op_rate                                  1145838                       # Simulator op (including micro ops) rate (op/s)
host_tick_rate                             1740314518                       # Simulator tick rate (ticks/s)
host_mem_usage                                8489472                       # Number of bytes of host memory used
host_seconds                                    38.41                       # Real time elapsed on the host
sim_insts                                    44008983                       # Number of instructions simulated
sim_ops                                      44008983                       # Number of ops (including micro ops) simulated
system.clk_domain.voltage_domain.voltage            1                       # Voltage in Volts
system.clk_domain.clock                          1000                       # Clock period in ticks
system.mem_ctrl.pwrStateResidencyTicks::UNDEFINED  66841504000                       # Cumulative time (in ticks) in various power states
system.mem_ctrl.bytes_read::cpu.inst          1339136                       # Number of bytes read from this memory
system.mem_ctrl.bytes_read::cpu.data          9053888                       # Number of bytes read from this memory
system.mem_ctrl.bytes_read::total            10393024                       # Number of bytes read from this memory
system.mem_ctrl.bytes_inst_read::cpu.inst      1339136                       # Number of instructions bytes read from this memory
system.mem_ctrl.bytes_inst_read::total        1339136                       # Number of instructions bytes read from this memory
system.mem_ctrl.bytes_written::writebacks     10392000                       # Number of bytes written to this memory
system.mem_ctrl.bytes_written::total         10392000                       # Number of bytes written to this memory
system.mem_ctrl.num_reads::cpu.inst             20924                       # Number of read requests responded to by this memory
system.mem_ctrl.num_reads::cpu.data            141467                       # Number of read requests responded to by this memory
system.mem_ctrl.num_reads::total               162391                       # Number of read requests responded to by this memory
system.mem_ctrl.num_writes::writebacks         162375                       # Number of write requests responded to by this memory
system.mem_ctrl.num_writes::total              162375                       # Number of write requests responded to by this memory
system.mem_ctrl.bw_read::cpu.inst            20034498                       # Total read bandwidth from this memory (bytes/s)
system.mem_ctrl.bw_read::cpu.data           135453086                       # Total read bandwidth from this memory (bytes/s)
system.mem_ctrl.bw_read::total              155487584                       # Total read bandwidth from this memory (bytes/s)
system.mem_ctrl.bw_inst_read::cpu.inst       20034498                       # Instruction read bandwidth from this memory (bytes/s)
system.mem_ctrl.bw_inst_read::total          20034498                       # Instruction read bandwidth from this memory (bytes/s)
system.mem_ctrl.bw_write::writebacks        155472265                       # Write bandwidth from this memory (bytes/s)
system.mem_ctrl.bw_write::total             155472265                       # Write bandwidth from this memory (bytes/s)
system.mem_ctrl.bw_total::writebacks        155472265                       # Total bandwidth to/from this memory (bytes/s)
system.mem_ctrl.bw_total::cpu.inst           20034498                       # Total bandwidth to/from this memory (bytes/s)
system.mem_ctrl.bw_total::cpu.data          135453086                       # Total bandwidth to/from this memory (bytes/s)
system.mem_ctrl.bw_total::total             310959849                       # Total bandwidth to/from this memory (bytes/s)
system.mem_ctrl.readReqs                       162391                       # Number of read requests accepted
system.mem_ctrl.writeReqs                      162375                       # Number of write requests accepted
system.mem_ctrl.readBursts                     162391                       # Number of DRAM read bursts, including those serviced by the write queue
system.mem_ctrl.writeBursts                    162375                       # Number of DRAM write bursts, including those merged in the write queue
system.mem_ctrl.bytesReadDRAM                 8093760                       # Total number of bytes read from DRAM
system.mem_ctrl.bytesReadWrQ                  2299264                       # Total number of bytes read from write queue
system.mem_ctrl.bytesWritten                  8847360                       # Total number of bytes written to DRAM
system.mem_ctrl.bytesReadSys                 10393024                       # Total read bytes from the system interface side
system.mem_ctrl.bytesWrittenSys              10392000                       # Total written bytes from the system interface side
system.mem_ctrl.servicedByWrQ                   35926                       # Number of DRAM read bursts serviced by the write queue
system.mem_ctrl.mergedWrBursts                  24111                       # Number of DRAM write bursts merged with an existing one
system.mem_ctrl.neitherReadNorWriteReqs             0                       # Number of requests that are neither read nor write
system.mem_ctrl.perBankRdBursts::0               8082                       # Per bank write bursts
system.mem_ctrl.perBankRdBursts::1               7993                       # Per bank write bursts
system.mem_ctrl.perBankRdBursts::2               8069                       # Per bank write bursts
system.mem_ctrl.perBankRdBursts::3               7867                       # Per bank write bursts
system.mem_ctrl.perBankRdBursts::4               7803                       # Per bank write bursts
system.mem_ctrl.perBankRdBursts::5               7752                       # Per bank write bursts
system.mem_ctrl.perBankRdBursts::6               7748                       # Per bank write bursts
system.mem_ctrl.perBankRdBursts::7               7715                       # Per bank write bursts
system.mem_ctrl.perBankRdBursts::8               7717                       # Per bank write bursts
system.mem_ctrl.perBankRdBursts::9               7994                       # Per bank write bursts
system.mem_ctrl.perBankRdBursts::10              7724                       # Per bank write bursts
system.mem_ctrl.perBankRdBursts::11              7984                       # Per bank write bursts
system.mem_ctrl.perBankRdBursts::12              7973                       # Per bank write bursts
system.mem_ctrl.perBankRdBursts::13              8005                       # Per bank write bursts
system.mem_ctrl.perBankRdBursts::14              8029                       # Per bank write bursts
system.mem_ctrl.perBankRdBursts::15              8010                       # Per bank write bursts
system.mem_ctrl.perBankWrBursts::0              14961                       # Per bank write bursts
system.mem_ctrl.perBankWrBursts::1               8143                       # Per bank write bursts
system.mem_ctrl.perBankWrBursts::2              10982                       # Per bank write bursts
system.mem_ctrl.perBankWrBursts::3               8014                       # Per bank write bursts
system.mem_ctrl.perBankWrBursts::4               7972                       # Per bank write bursts
system.mem_ctrl.perBankWrBursts::5               7905                       # Per bank write bursts
system.mem_ctrl.perBankWrBursts::6               7877                       # Per bank write bursts
system.mem_ctrl.perBankWrBursts::7               7866                       # Per bank write bursts
system.mem_ctrl.perBankWrBursts::8               7852                       # Per bank write bursts
system.mem_ctrl.perBankWrBursts::9               8134                       # Per bank write bursts
system.mem_ctrl.perBankWrBursts::10              7858                       # Per bank write bursts
system.mem_ctrl.perBankWrBursts::11              8116                       # Per bank write bursts
system.mem_ctrl.perBankWrBursts::12              8102                       # Per bank write bursts
system.mem_ctrl.perBankWrBursts::13              8127                       # Per bank write bursts
system.mem_ctrl.perBankWrBursts::14              8187                       # Per bank write bursts
system.mem_ctrl.perBankWrBursts::15              8144                       # Per bank write bursts
system.mem_ctrl.numRdRetry                          0                       # Number of times read queue was full causing retry
system.mem_ctrl.numWrRetry                          0                       # Number of times write queue was full causing retry
system.mem_ctrl.totGap                    66841491000                       # Total gap between requests
system.mem_ctrl.readPktSize::0                      0                       # Read request sizes (log2)
system.mem_ctrl.readPktSize::1                      0                       # Read request sizes (log2)
system.mem_ctrl.readPktSize::2                      0                       # Read request sizes (log2)
system.mem_ctrl.readPktSize::3                      0                       # Read request sizes (log2)
system.mem_ctrl.readPktSize::4                      0                       # Read request sizes (log2)
system.mem_ctrl.readPktSize::5                      0                       # Read request sizes (log2)
system.mem_ctrl.readPktSize::6                 162391                       # Read request sizes (log2)
system.mem_ctrl.writePktSize::0                     0                       # Write request sizes (log2)
system.mem_ctrl.writePktSize::1                     0                       # Write request sizes (log2)
system.mem_ctrl.writePktSize::2                     0                       # Write request sizes (log2)
system.mem_ctrl.writePktSize::3                     0                       # Write request sizes (log2)
system.mem_ctrl.writePktSize::4                     0                       # Write request sizes (log2)
system.mem_ctrl.writePktSize::5                     0                       # Write request sizes (log2)
system.mem_ctrl.writePktSize::6                162375                       # Write request sizes (log2)
system.mem_ctrl.rdQLenPdf::0                   126465                       # What read queue length does an incoming req see
system.mem_ctrl.rdQLenPdf::1                        0                       # What read queue length does an incoming req see
system.mem_ctrl.rdQLenPdf::2                        0                       # What read queue length does an incoming req see
system.mem_ctrl.rdQLenPdf::3                        0                       # What read queue length does an incoming req see
system.mem_ctrl.rdQLenPdf::4                        0                       # What read queue length does an incoming req see
system.mem_ctrl.rdQLenPdf::5                        0                       # What read queue length does an incoming req see
system.mem_ctrl.rdQLenPdf::6                        0                       # What read queue length does an incoming req see
system.mem_ctrl.rdQLenPdf::7                        0                       # What read queue length does an incoming req see
system.mem_ctrl.rdQLenPdf::8                        0                       # What read queue length does an incoming req see
system.mem_ctrl.rdQLenPdf::9                        0                       # What read queue length does an incoming req see
system.mem_ctrl.rdQLenPdf::10                       0                       # What read queue length does an incoming req see
system.mem_ctrl.rdQLenPdf::11                       0                       # What read queue length does an incoming req see
system.mem_ctrl.rdQLenPdf::12                       0                       # What read queue length does an incoming req see
system.mem_ctrl.rdQLenPdf::13                       0                       # What read queue length does an incoming req see
system.mem_ctrl.rdQLenPdf::14                       0                       # What read queue length does an incoming req see
system.mem_ctrl.rdQLenPdf::15                       0                       # What read queue length does an incoming req see
system.mem_ctrl.rdQLenPdf::16                       0                       # What read queue length does an incoming req see
system.mem_ctrl.rdQLenPdf::17                       0                       # What read queue length does an incoming req see
system.mem_ctrl.rdQLenPdf::18                       0                       # What read queue length does an incoming req see
system.mem_ctrl.rdQLenPdf::19                       0                       # What read queue length does an incoming req see
system.mem_ctrl.rdQLenPdf::20                       0                       # What read queue length does an incoming req see
system.mem_ctrl.rdQLenPdf::21                       0                       # What read queue length does an incoming req see
system.mem_ctrl.rdQLenPdf::22                       0                       # What read queue length does an incoming req see
system.mem_ctrl.rdQLenPdf::23                       0                       # What read queue length does an incoming req see
system.mem_ctrl.rdQLenPdf::24                       0                       # What read queue length does an incoming req see
system.mem_ctrl.rdQLenPdf::25                       0                       # What read queue length does an incoming req see
system.mem_ctrl.rdQLenPdf::26                       0                       # What read queue length does an incoming req see
system.mem_ctrl.rdQLenPdf::27                       0                       # What read queue length does an incoming req see
system.mem_ctrl.rdQLenPdf::28                       0                       # What read queue length does an incoming req see
system.mem_ctrl.rdQLenPdf::29                       0                       # What read queue length does an incoming req see
system.mem_ctrl.rdQLenPdf::30                       0                       # What read queue length does an incoming req see
system.mem_ctrl.rdQLenPdf::31                       0                       # What read queue length does an incoming req see
system.mem_ctrl.wrQLenPdf::0                        1                       # What write queue length does an incoming req see
system.mem_ctrl.wrQLenPdf::1                        1                       # What write queue length does an incoming req see
system.mem_ctrl.wrQLenPdf::2                        1                       # What write queue length does an incoming req see
system.mem_ctrl.wrQLenPdf::3                        1                       # What write queue length does an incoming req see
system.mem_ctrl.wrQLenPdf::4                        1                       # What write queue length does an incoming req see
system.mem_ctrl.wrQLenPdf::5                        1                       # What write queue length does an incoming req see
system.mem_ctrl.wrQLenPdf::6                        1                       # What write queue length does an incoming req see
system.mem_ctrl.wrQLenPdf::7                        1                       # What write queue length does an incoming req see
system.mem_ctrl.wrQLenPdf::8                        1                       # What write queue length does an incoming req see
system.mem_ctrl.wrQLenPdf::9                        1                       # What write queue length does an incoming req see
system.mem_ctrl.wrQLenPdf::10                       1                       # What write queue length does an incoming req see
system.mem_ctrl.wrQLenPdf::11                       1                       # What write queue length does an incoming req see
system.mem_ctrl.wrQLenPdf::12                       1                       # What write queue length does an incoming req see
system.mem_ctrl.wrQLenPdf::13                       1                       # What write queue length does an incoming req see
system.mem_ctrl.wrQLenPdf::14                       1                       # What write queue length does an incoming req see
system.mem_ctrl.wrQLenPdf::15                    7489                       # What write queue length does an incoming req see
system.mem_ctrl.wrQLenPdf::16                    7498                       # What write queue length does an incoming req see
system.mem_ctrl.wrQLenPdf::17                    7656                       # What write queue length does an incoming req see
system.mem_ctrl.wrQLenPdf::18                    7704                       # What write queue length does an incoming req see
system.mem_ctrl.wrQLenPdf::19                    7689                       # What write queue length does an incoming req see
system.mem_ctrl.wrQLenPdf::20                    7675                       # What write queue length does an incoming req see
system.mem_ctrl.wrQLenPdf::21                    7684                       # What write queue length does an incoming req see
system.mem_ctrl.wrQLenPdf::22                    7719                       # What write queue length does an incoming req see
system.mem_ctrl.wrQLenPdf::23                    8057                       # What write queue length does an incoming req see
system.mem_ctrl.wrQLenPdf::24                    7715                       # What write queue length does an incoming req see
system.mem_ctrl.wrQLenPdf::25                    7694                       # What write queue length does an incoming req see
system.mem_ctrl.wrQLenPdf::26                    7682                       # What write queue length does an incoming req see
system.mem_ctrl.wrQLenPdf::27                    7673                       # What write queue length does an incoming req see
system.mem_ctrl.wrQLenPdf::28                    7668                       # What write queue length does an incoming req see
system.mem_ctrl.wrQLenPdf::29                    7661                       # What write queue length does an incoming req see
system.mem_ctrl.wrQLenPdf::30                    7661                       # What write queue length does an incoming req see
system.mem_ctrl.wrQLenPdf::31                    7661                       # What write queue length does an incoming req see
system.mem_ctrl.wrQLenPdf::32                    7660                       # What write queue length does an incoming req see
system.mem_ctrl.wrQLenPdf::33                       3                       # What write queue length does an incoming req see
system.mem_ctrl.wrQLenPdf::34                       0                       # What write queue length does an incoming req see
system.mem_ctrl.wrQLenPdf::35                       0                       # What write queue length does an incoming req see
system.mem_ctrl.wrQLenPdf::36                       0                       # What write queue length does an incoming req see
system.mem_ctrl.wrQLenPdf::37                       0                       # What write queue length does an incoming req see
system.mem_ctrl.wrQLenPdf::38                       0                       # What write queue length does an incoming req see
system.mem_ctrl.wrQLenPdf::39                       0                       # What write queue length does an incoming req see
system.mem_ctrl.wrQLenPdf::40                       0                       # What write queue length does an incoming req see
system.mem_ctrl.wrQLenPdf::41                       0                       # What write queue length does an incoming req see
system.mem_ctrl.wrQLenPdf::42                       0                       # What write queue length does an incoming req see
system.mem_ctrl.wrQLenPdf::43                       0                       # What write queue length does an incoming req see
system.mem_ctrl.wrQLenPdf::44                       0                       # What write queue length does an incoming req see
system.mem_ctrl.wrQLenPdf::45                       0                       # What write queue length does an incoming req see
system.mem_ctrl.wrQLenPdf::46                       0                       # What write queue length does an incoming req see
system.mem_ctrl.wrQLenPdf::47                       0                       # What write queue length does an incoming req see
system.mem_ctrl.wrQLenPdf::48                       0                       # What write queue length does an incoming req see
system.mem_ctrl.wrQLenPdf::49                       0                       # What write queue length does an incoming req see
system.mem_ctrl.wrQLenPdf::50                       0                       # What write queue length does an incoming req see
system.mem_ctrl.wrQLenPdf::51                       0                       # What write queue length does an incoming req see
system.mem_ctrl.wrQLenPdf::52                       0                       # What write queue length does an incoming req see
system.mem_ctrl.wrQLenPdf::53                       0                       # What write queue length does an incoming req see
system.mem_ctrl.wrQLenPdf::54                       0                       # What write queue length does an incoming req see
system.mem_ctrl.wrQLenPdf::55                       0                       # What write queue length does an incoming req see
system.mem_ctrl.wrQLenPdf::56                       0                       # What write queue length does an incoming req see
system.mem_ctrl.wrQLenPdf::57                       0                       # What write queue length does an incoming req see
system.mem_ctrl.wrQLenPdf::58                       0                       # What write queue length does an incoming req see
system.mem_ctrl.wrQLenPdf::59                       0                       # What write queue length does an incoming req see
system.mem_ctrl.wrQLenPdf::60                       0                       # What write queue length does an incoming req see
system.mem_ctrl.wrQLenPdf::61                       0                       # What write queue length does an incoming req see
system.mem_ctrl.wrQLenPdf::62                       0                       # What write queue length does an incoming req see
system.mem_ctrl.wrQLenPdf::63                       0                       # What write queue length does an incoming req see
system.mem_ctrl.bytesPerActivate::samples        29338                       # Bytes accessed per row activation
system.mem_ctrl.bytesPerActivate::mean     577.369964                       # Bytes accessed per row activation
system.mem_ctrl.bytesPerActivate::gmean    376.077883                       # Bytes accessed per row activation
system.mem_ctrl.bytesPerActivate::stdev    397.533356                       # Bytes accessed per row activation
system.mem_ctrl.bytesPerActivate::0-127          5532     18.86%     18.86% # Bytes accessed per row activation
system.mem_ctrl.bytesPerActivate::128-255         4216     14.37%     33.23% # Bytes accessed per row activation
system.mem_ctrl.bytesPerActivate::256-383         1946      6.63%     39.86% # Bytes accessed per row activation
system.mem_ctrl.bytesPerActivate::384-511         1222      4.17%     44.02% # Bytes accessed per row activation
system.mem_ctrl.bytesPerActivate::512-639         1161      3.96%     47.98% # Bytes accessed per row activation
system.mem_ctrl.bytesPerActivate::640-767         2153      7.34%     55.32% # Bytes accessed per row activation
system.mem_ctrl.bytesPerActivate::768-895         2262      7.71%     63.03% # Bytes accessed per row activation
system.mem_ctrl.bytesPerActivate::896-1023         1083      3.69%     66.72% # Bytes accessed per row activation
system.mem_ctrl.bytesPerActivate::1024-1151         9763     33.28%    100.00% # Bytes accessed per row activation
system.mem_ctrl.bytesPerActivate::total         29338                       # Bytes accessed per row activation
system.mem_ctrl.rdPerTurnAround::samples         7660                       # Reads before turning the bus around for writes
system.mem_ctrl.rdPerTurnAround::mean       16.508747                       # Reads before turning the bus around for writes
system.mem_ctrl.rdPerTurnAround::gmean      16.440198                       # Reads before turning the bus around for writes
system.mem_ctrl.rdPerTurnAround::stdev       1.475589                       # Reads before turning the bus around for writes
system.mem_ctrl.rdPerTurnAround::2-3                1      0.01%      0.01% # Reads before turning the bus around for writes
system.mem_ctrl.rdPerTurnAround::6-7                1      0.01%      0.03% # Reads before turning the bus around for writes
system.mem_ctrl.rdPerTurnAround::10-11             12      0.16%      0.18% # Reads before turning the bus around for writes
system.mem_ctrl.rdPerTurnAround::12-13            198      2.58%      2.77% # Reads before turning the bus around for writes
system.mem_ctrl.rdPerTurnAround::14-15           1538     20.08%     22.85% # Reads before turning the bus around for writes
system.mem_ctrl.rdPerTurnAround::16-17           3835     50.07%     72.91% # Reads before turning the bus around for writes
system.mem_ctrl.rdPerTurnAround::18-19           2026     26.45%     99.36% # Reads before turning the bus around for writes
system.mem_ctrl.rdPerTurnAround::20-21             48      0.63%     99.99% # Reads before turning the bus around for writes
system.mem_ctrl.rdPerTurnAround::42-43              1      0.01%    100.00% # Reads before turning the bus around for writes
system.mem_ctrl.rdPerTurnAround::total           7660                       # Reads before turning the bus around for writes
system.mem_ctrl.wrPerTurnAround::samples         7660                       # Writes before turning the bus around for reads
system.mem_ctrl.wrPerTurnAround::mean       18.046997                       # Writes before turning the bus around for reads
system.mem_ctrl.wrPerTurnAround::gmean      18.041484                       # Writes before turning the bus around for reads
system.mem_ctrl.wrPerTurnAround::stdev       0.443591                       # Writes before turning the bus around for reads
system.mem_ctrl.wrPerTurnAround::16               164      2.14%      2.14% # Writes before turning the bus around for reads
system.mem_ctrl.wrPerTurnAround::17                 6      0.08%      2.22% # Writes before turning the bus around for reads
system.mem_ctrl.wrPerTurnAround::18              6870     89.69%     91.91% # Writes before turning the bus around for reads
system.mem_ctrl.wrPerTurnAround::19               554      7.23%     99.14% # Writes before turning the bus around for reads
system.mem_ctrl.wrPerTurnAround::20                60      0.78%     99.92% # Writes before turning the bus around for reads
system.mem_ctrl.wrPerTurnAround::21                 4      0.05%     99.97% # Writes before turning the bus around for reads
system.mem_ctrl.wrPerTurnAround::22                 2      0.03%    100.00% # Writes before turning the bus around for reads
system.mem_ctrl.wrPerTurnAround::total           7660                       # Writes before turning the bus around for reads
system.mem_ctrl.totQLat                    1845724250                       # Total ticks spent queuing
system.mem_ctrl.totMemAccLat               4216943000                       # Total ticks spent from burst creation until serviced by the DRAM
system.mem_ctrl.totBusLat                   632325000                       # Total ticks spent in databus transfers
system.mem_ctrl.avgQLat                      14594.74                       # Average queueing delay per DRAM burst
system.mem_ctrl.avgBusLat                     5000.00                       # Average bus latency per DRAM burst
system.mem_ctrl.avgMemAccLat                 33344.74                       # Average memory access latency per DRAM burst
system.mem_ctrl.avgRdBW                        121.09                       # Average DRAM read bandwidth in MiByte/s
system.mem_ctrl.avgWrBW                        132.36                       # Average achieved write bandwidth in MiByte/s
system.mem_ctrl.avgRdBWSys                     155.49                       # Average system read bandwidth in MiByte/s
system.mem_ctrl.avgWrBWSys                     155.47                       # Average system write bandwidth in MiByte/s
system.mem_ctrl.peakBW                       12800.00                       # Theoretical peak bandwidth in MiByte/s
system.mem_ctrl.busUtil                          1.98                       # Data bus utilization in percentage
system.mem_ctrl.busUtilRead                      0.95                       # Data bus utilization in percentage for reads
system.mem_ctrl.busUtilWrite                     1.03                       # Data bus utilization in percentage for writes
system.mem_ctrl.avgRdQLen                        1.00                       # Average read queue length when enqueuing
system.mem_ctrl.avgWrQLen                       24.64                       # Average write queue length when enqueuing
system.mem_ctrl.readRowHits                    112455                       # Number of row buffer hits during reads
system.mem_ctrl.writeRowHits                   122905                       # Number of row buffer hits during writes
system.mem_ctrl.readRowHitRate                  88.92                       # Row buffer hit rate for reads
system.mem_ctrl.writeRowHitRate                 88.89                       # Row buffer hit rate for writes
system.mem_ctrl.avgGap                      205814.31                       # Average gap between requests
system.mem_ctrl.pageHitRate                     88.91                       # Row buffer hit rate, read and write combined
system.mem_ctrl_0.actEnergy                 128034480                       # Energy for activate commands per rank (pJ)
system.mem_ctrl_0.preEnergy                  68040555                       # Energy for precharge commands per rank (pJ)
system.mem_ctrl_0.readEnergy                450027060                       # Energy for read commands per rank (pJ)
system.mem_ctrl_0.writeEnergy               384818400                       # Energy for write commands per rank (pJ)
system.mem_ctrl_0.refreshEnergy          5856289920.000001                       # Energy for refresh commands per rank (pJ)
system.mem_ctrl_0.actBackEnergy            4757605320                       # Energy for active background per rank (pJ)
system.mem_ctrl_0.preBackEnergy             346044000                       # Energy for precharge background per rank (pJ)
system.mem_ctrl_0.actPowerDownEnergy      12778513650                       # Energy for active power-down per rank (pJ)
system.mem_ctrl_0.prePowerDownEnergy       7787637120                       # Energy for precharge power-down per rank (pJ)
system.mem_ctrl_0.selfRefreshEnergy        2837511930                       # Energy for self refresh per rank (pJ)
system.mem_ctrl_0.totalEnergy             35395093845                       # Total energy per rank (pJ)
system.mem_ctrl_0.averagePower             529.537655                       # Core power per rank (mW)
system.mem_ctrl_0.totalIdleTime           55505476250                       # Total Idle time Per DRAM Rank
system.mem_ctrl_0.memoryStateTime::IDLE     676523750                       # Time in different power states
system.mem_ctrl_0.memoryStateTime::REF     2489370000                       # Time in different power states
system.mem_ctrl_0.memoryStateTime::SREF    7202357750                       # Time in different power states
system.mem_ctrl_0.memoryStateTime::PRE_PDN  20280299000                       # Time in different power states
system.mem_ctrl_0.memoryStateTime::ACT     8170091250                       # Time in different power states
system.mem_ctrl_0.memoryStateTime::ACT_PDN  28022862250                       # Time in different power states
system.mem_ctrl_1.actEnergy                  81488820                       # Energy for activate commands per rank (pJ)
system.mem_ctrl_1.preEnergy                  43297155                       # Energy for precharge commands per rank (pJ)
system.mem_ctrl_1.readEnergy                452933040                       # Energy for read commands per rank (pJ)
system.mem_ctrl_1.writeEnergy               336794400                       # Energy for write commands per rank (pJ)
system.mem_ctrl_1.refreshEnergy          4845207120.000001                       # Energy for refresh commands per rank (pJ)
system.mem_ctrl_1.actBackEnergy            2815680300                       # Energy for active background per rank (pJ)
system.mem_ctrl_1.preBackEnergy             270389280                       # Energy for precharge background per rank (pJ)
system.mem_ctrl_1.actPowerDownEnergy      12983509020                       # Energy for active power-down per rank (pJ)
system.mem_ctrl_1.prePowerDownEnergy       5337299520                       # Energy for precharge power-down per rank (pJ)
system.mem_ctrl_1.selfRefreshEnergy        5145924060                       # Energy for self refresh per rank (pJ)
system.mem_ctrl_1.totalEnergy             32313169155                       # Total energy per rank (pJ)
system.mem_ctrl_1.averagePower             483.429707                       # Core power per rank (mW)
system.mem_ctrl_1.totalIdleTime           59960784000                       # Total Idle time Per DRAM Rank
system.mem_ctrl_1.memoryStateTime::IDLE     485542250                       # Time in different power states
system.mem_ctrl_1.memoryStateTime::REF     2059792000                       # Time in different power states
system.mem_ctrl_1.memoryStateTime::SREF   17589335250                       # Time in different power states
system.mem_ctrl_1.memoryStateTime::PRE_PDN  13899218000                       # Time in different power states
system.mem_ctrl_1.memoryStateTime::ACT     4335125250                       # Time in different power states
system.mem_ctrl_1.memoryStateTime::ACT_PDN  28472491250                       # Time in different power states
system.pwrStateResidencyTicks::UNDEFINED  66841504000                       # Cumulative time (in ticks) in various power states
system.cache.pwrStateResidencyTicks::UNDEFINED  66841504000                       # Cumulative time (in ticks) in various power states
system.cache.hits                            57850798                       # Number of hits
system.cache.misses                            162391                       # Number of misses
system.cache.missLatency::samples              162391                       # Ticks for misses to the cache
system.cache.missLatency::mean           54364.558381                       # Ticks for misses to the cache
system.cache.missLatency::gmean          47348.595292                       # Ticks for misses to the cache
system.cache.missLatency::stdev          39264.491832                       # Ticks for misses to the cache
system.cache.missLatency::0-65535              151160     93.08%     93.08% # Ticks for misses to the cache
system.cache.missLatency::65536-131071           5914      3.64%     96.73% # Ticks for misses to the cache
system.cache.missLatency::131072-196607          1309      0.81%     97.53% # Ticks for misses to the cache
system.cache.missLatency::196608-262143          2038      1.25%     98.79% # Ticks for misses to the cache
system.cache.missLatency::262144-327679          1735      1.07%     99.86% # Ticks for misses to the cache
system.cache.missLatency::327680-393215           177      0.11%     99.96% # Ticks for misses to the cache
system.cache.missLatency::393216-458751             0      0.00%     99.96% # Ticks for misses to the cache
system.cache.missLatency::458752-524287             0      0.00%     99.96% # Ticks for misses to the cache
system.cache.missLatency::524288-589823             0      0.00%     99.96% # Ticks for misses to the cache
system.cache.missLatency::589824-655359            58      0.04%    100.00% # Ticks for misses to the cache
system.cache.missLatency::655360-720895             0      0.00%    100.00% # Ticks for misses to the cache
system.cache.missLatency::720896-786431             0      0.00%    100.00% # Ticks for misses to the cache
system.cache.missLatency::786432-851967             0      0.00%    100.00% # Ticks for misses to the cache
system.cache.missLatency::851968-917503             0      0.00%    100.00% # Ticks for misses to the cache
system.cache.missLatency::917504-983039             0      0.00%    100.00% # Ticks for misses to the cache
system.cache.missLatency::983040-1.04858e+06            0      0.00%    100.00% # Ticks for misses to the cache
system.cache.missLatency::total                162391                       # Ticks for misses to the cache
system.cache.hitRatio                        0.997201                       # The ratio of hits to the total accesses to the cache
system.cpu.dtb.fetch_hits                           0                       # ITB hits
system.cpu.dtb.fetch_misses                         0                       # ITB misses
system.cpu.dtb.fetch_acv                            0                       # ITB acv
system.cpu.dtb.fetch_accesses                       0                       # ITB accesses
system.cpu.dtb.read_hits                     10001315                       # DTB read hits
system.cpu.dtb.read_misses                        516                       # DTB read misses
system.cpu.dtb.read_acv                             0                       # DTB read access violations
system.cpu.dtb.read_accesses                 10001831                       # DTB read accesses
system.cpu.dtb.write_hits                     4001460                       # DTB write hits
system.cpu.dtb.write_misses                       915                       # DTB write misses
system.cpu.dtb.write_acv                            0                       # DTB write access violations
system.cpu.dtb.write_accesses                 4002375                       # DTB write accesses
system.cpu.dtb.data_hits                     14002775                       # DTB hits
system.cpu.dtb.data_misses                       1431                       # DTB misses
system.cpu.dtb.data_acv                             0                       # DTB access violations
system.cpu.dtb.data_accesses                 14004206                       # DTB accesses
system.cpu.itb.fetch_hits                    44010415                       # ITB hits
system.cpu.itb.fetch_misses                        19                       # ITB misses
system.cpu.itb.fetch_acv                            0                       # ITB acv
system.cpu.itb.fetch_accesses                44010434                       # ITB accesses
system.cpu.itb.read_hits                            0                       # DTB read hits
system.cpu.itb.read_misses                          0                       # DTB read misses
system.cpu.itb.read_acv                             0                       # DTB read access violations
system.cpu.itb.read_accesses                        0                       # DTB read accesses
system.cpu.itb.write_hits                           0                       # DTB write hits
system.cpu.itb.write_misses                         0                       # DTB write misses
system.cpu.itb.write_acv                            0                       # DTB write access violations
system.cpu.itb.write_accesses                       0                       # DTB write accesses
system.cpu.itb.data_hits                            0                       # DTB hits
system.cpu.itb.data_misses                          0                       # DTB misses
system.cpu.itb.data_acv                             0                       # DTB access violations
system.cpu.itb.data_accesses                        0                       # DTB accesses
system.cpu.workload.numSyscalls                    10                       # Number of system calls
system.cpu.pwrStateResidencyTicks::ON     66841504000                       # Cumulative time (in ticks) in various power states
system.cpu.numCycles                         66841504                       # number of cpu cycles simulated
system.cpu.numWorkItemsStarted                      0                       # number of work items this cpu started
system.cpu.numWorkItemsCompleted                    0                       # number of work items this cpu completed
system.cpu.committedInsts                    44008983                       # Number of instructions committed
system.cpu.committedOps                      44008983                       # Number of ops (including micro ops) committed
system.cpu.num_int_alu_accesses              42010330                       # Number of integer alu accesses
system.cpu.num_fp_alu_accesses                     16                       # Number of float alu accesses
system.cpu.num_vec_alu_accesses                     0                       # Number of vector alu accesses
system.cpu.num_func_calls                         231                       # number of times a function call or return occured
system.cpu.num_conditional_control_insts      2001276                       # number of instructions that are conditional controls
system.cpu.num_int_insts                     42010330                       # number of integer instructions
system.cpu.num_fp_insts                            16                       # number of float instructions
system.cpu.num_vec_insts                            0                       # number of vector instructions
system.cpu.num_int_register_reads            53014129                       # number of times the integer registers were read
system.cpu.num_int_register_writes           36006038                       # number of times the integer registers were written
system.cpu.num_fp_register_reads                   14                       # number of times the floating registers were read
system.cpu.num_fp_register_writes                   2                       # number of times the floating registers were written
system.cpu.num_vec_register_reads                   0                       # number of times the vector registers were read
system.cpu.num_vec_register_writes                  0                       # number of times the vector registers were written
system.cpu.num_mem_refs                      14004206                       # number of memory refs
system.cpu.num_load_insts                    10001831                       # Number of load instructions
system.cpu.num_store_insts                    4002375                       # Number of store instructions
system.cpu.num_idle_cycles                          0                       # Number of idle cycles
system.cpu.num_busy_cycles                   66841504                       # Number of busy cycles
system.cpu.not_idle_fraction                        1                       # Percentage of non-idle cycles
system.cpu.idle_fraction                            0                       # Percentage of idle cycles
system.cpu.Branches                           4001572                       # Number of branches fetched
system.cpu.op_class::No_OpClass                    22      0.00%      0.00% # Class of executed instruction
system.cpu.op_class::IntAlu                  30006176     68.18%     68.18% # Class of executed instruction
system.cpu.op_class::IntMult                        8      0.00%     68.18% # Class of executed instruction
system.cpu.op_class::IntDiv                         0      0.00%     68.18% # Class of executed instruction
system.cpu.op_class::FloatAdd                       2      0.00%     68.18% # Class of executed instruction
system.cpu.op_class::FloatCmp                       0      0.00%     68.18% # Class of executed instruction
system.cpu.op_class::FloatCvt                       0      0.00%     68.18% # Class of executed instruction
system.cpu.op_class::FloatMult                      0      0.00%     68.18% # Class of executed instruction
system.cpu.op_class::FloatMultAcc                   0      0.00%     68.18% # Class of executed instruction
system.cpu.op_class::FloatDiv                       0      0.00%     68.18% # Class of executed instruction
system.cpu.op_class::FloatMisc                      0      0.00%     68.18% # Class of executed instruction
system.cpu.op_class::FloatSqrt                      0      0.00%     68.18% # Class of executed instruction
system.cpu.op_class::SimdAdd                        0      0.00%     68.18% # Class of executed instruction
system.cpu.op_class::SimdAddAcc                     0      0.00%     68.18% # Class of executed instruction
system.cpu.op_class::SimdAlu                        0      0.00%     68.18% # Class of executed instruction
system.cpu.op_class::SimdCmp                        0      0.00%     68.18% # Class of executed instruction
system.cpu.op_class::SimdCvt                        0      0.00%     68.18% # Class of executed instruction
system.cpu.op_class::SimdMisc                       0      0.00%     68.18% # Class of executed instruction
system.cpu.op_class::SimdMult                       0      0.00%     68.18% # Class of executed instruction
system.cpu.op_class::SimdMultAcc                    0      0.00%     68.18% # Class of executed instruction
system.cpu.op_class::SimdShift                      0      0.00%     68.18% # Class of executed instruction
system.cpu.op_class::SimdShiftAcc                   0      0.00%     68.18% # Class of executed instruction
system.cpu.op_class::SimdSqrt                       0      0.00%     68.18% # Class of executed instruction
system.cpu.op_class::SimdFloatAdd                   0      0.00%     68.18% # Class of executed instruction
system.cpu.op_class::SimdFloatAlu                   0      0.00%     68.18% # Class of executed instruction
system.cpu.op_class::SimdFloatCmp                   0      0.00%     68.18% # Class of executed instruction
system.cpu.op_class::SimdFloatCvt                   0      0.00%     68.18% # Class of executed instruction
system.cpu.op_class::SimdFloatDiv                   0      0.00%     68.18% # Class of executed instruction
system.cpu.op_class::SimdFloatMisc                  0      0.00%     68.18% # Class of executed instruction
system.cpu.op_class::SimdFloatMult                  0      0.00%     68.18% # Class of executed instruction
system.cpu.op_class::SimdFloatMultAcc               0      0.00%     68.18% # Class of executed instruction
system.cpu.op_class::SimdFloatSqrt                  0      0.00%     68.18% # Class of executed instruction
system.cpu.op_class::MemRead                 10001830     22.73%     90.91% # Class of executed instruction
system.cpu.op_class::MemWrite                 4002362      9.09%    100.00% # Class of executed instruction
system.cpu.op_class::FloatMemRead                   1      0.00%    100.00% # Class of executed instruction
system.cpu.op_class::FloatMemWrite                 13      0.00%    100.00% # Class of executed instruction
system.cpu.op_class::IprAccess                      0      0.00%    100.00% # Class of executed instruction
system.cpu.op_class::InstPrefetch                   0      0.00%    100.00% # Class of executed instruction
system.cpu.op_class::total                   44010414                       # Class of executed instruction
system.membus.snoop_filter.tot_requests             0                       # Total number of requests made to the snoop filter.
system.membus.snoop_filter.hit_single_requests            0                       # Number of requests hitting in the snoop filter with a single holder of the requested data.
system.membus.snoop_filter.hit_multi_requests            0                       # Number of requests hitting in the snoop filter with multiple (>1) holders of the requested data.
system.membus.snoop_filter.tot_snoops               0                       # Total number of snoops made to the snoop filter.
system.membus.snoop_filter.hit_single_snoops            0                       # Number of snoops hitting in the snoop filter with a single holder of the requested data.
system.membus.snoop_filter.hit_multi_snoops            0                       # Number of snoops hitting in the snoop filter with multiple (>1) holders of the requested data.
system.membus.pwrStateResidencyTicks::UNDEFINED  66841504000                       # Cumulative time (in ticks) in various power states
system.membus.trans_dist::ReadReq              162391                       # Transaction distribution
system.membus.trans_dist::ReadResp             162391                       # Transaction distribution
system.membus.trans_dist::WritebackDirty       162375                       # Transaction distribution
system.membus.pkt_count_system.cache.mem_side::system.mem_ctrl.port       487157                       # Packet count per connected master and slave (bytes)
system.membus.pkt_count::total                 487157                       # Packet count per connected master and slave (bytes)
system.membus.pkt_size_system.cache.mem_side::system.mem_ctrl.port     20785024                       # Cumulative packet size per connected master and slave (bytes)
system.membus.pkt_size::total                20785024                       # Cumulative packet size per connected master and slave (bytes)
system.membus.snoops                                0                       # Total snoops (count)
system.membus.snoopTraffic                          0                       # Total snoop traffic (bytes)
system.membus.snoop_fanout::samples            162391                       # Request fanout histogram
system.membus.snoop_fanout::mean                    0                       # Request fanout histogram
system.membus.snoop_fanout::stdev                   0                       # Request fanout histogram
system.membus.snoop_fanout::underflows              0      0.00%      0.00% # Request fanout histogram
system.membus.snoop_fanout::0                  162391    100.00%    100.00% # Request fanout histogram
system.membus.snoop_fanout::overflows               0      0.00%    100.00% # Request fanout histogram
system.membus.snoop_fanout::min_value               0                       # Request fanout histogram
system.membus.snoop_fanout::max_value               0                       # Request fanout histogram
system.membus.snoop_fanout::total              162391                       # Request fanout histogram
system.membus.reqLayer0.occupancy           974266000                       # Layer occupancy (ticks)
system.membus.reqLayer0.utilization               1.5                       # Layer utilization (%)
system.membus.respLayer0.occupancy          846419000                       # Layer occupancy (ticks)
system.membus.respLayer0.utilization              1.3                       # Layer utilization (%)

---------- End Simulation Statistics   ----------
