
---------- Begin Simulation Statistics ----------
sim_seconds                                  0.000249                       # Number of seconds simulated
sim_ticks                                   249333000                       # Number of ticks simulated
final_tick                                  249333000                       # Number of ticks from beginning of simulation (restored from checkpoints and never reset)
sim_freq                                 1000000000000                       # Frequency of simulated ticks
host_inst_rate                                 289222                       # Simulator instruction rate (inst/s)
host_op_rate                                   288996                       # Simulator op (including micro ops) rate (op/s)
host_tick_rate                             6971229659                       # Simulator tick rate (ticks/s)
host_mem_usage                                8485372                       # Number of bytes of host memory used
host_seconds                                     0.04                       # Real time elapsed on the host
sim_insts                                       10329                       # Number of instructions simulated
sim_ops                                         10329                       # Number of ops (including micro ops) simulated
system.clk_domain.voltage_domain.voltage            1                       # Voltage in Volts
system.clk_domain.clock                          1000                       # Clock period in ticks
system.mem_ctrl.pwrStateResidencyTicks::UNDEFINED    249333000                       # Cumulative time (in ticks) in various power states
system.mem_ctrl.bytes_read::cpu.inst           283200                       # Number of bytes read from this memory
system.mem_ctrl.bytes_read::cpu.data           201792                       # Number of bytes read from this memory
system.mem_ctrl.bytes_read::total              484992                       # Number of bytes read from this memory
system.mem_ctrl.bytes_inst_read::cpu.inst       283200                       # Number of instructions bytes read from this memory
system.mem_ctrl.bytes_inst_read::total         283200                       # Number of instructions bytes read from this memory
system.mem_ctrl.bytes_written::writebacks       483968                       # Number of bytes written to this memory
system.mem_ctrl.bytes_written::total           483968                       # Number of bytes written to this memory
system.mem_ctrl.num_reads::cpu.inst              4425                       # Number of read requests responded to by this memory
system.mem_ctrl.num_reads::cpu.data              3153                       # Number of read requests responded to by this memory
system.mem_ctrl.num_reads::total                 7578                       # Number of read requests responded to by this memory
system.mem_ctrl.num_writes::writebacks           7562                       # Number of write requests responded to by this memory
system.mem_ctrl.num_writes::total                7562                       # Number of write requests responded to by this memory
system.mem_ctrl.bw_read::cpu.inst          1135830395                       # Total read bandwidth from this memory (bytes/s)
system.mem_ctrl.bw_read::cpu.data           809327285                       # Total read bandwidth from this memory (bytes/s)
system.mem_ctrl.bw_read::total             1945157681                       # Total read bandwidth from this memory (bytes/s)
system.mem_ctrl.bw_inst_read::cpu.inst     1135830395                       # Instruction read bandwidth from this memory (bytes/s)
system.mem_ctrl.bw_inst_read::total        1135830395                       # Instruction read bandwidth from this memory (bytes/s)
system.mem_ctrl.bw_write::writebacks       1941050723                       # Write bandwidth from this memory (bytes/s)
system.mem_ctrl.bw_write::total            1941050723                       # Write bandwidth from this memory (bytes/s)
system.mem_ctrl.bw_total::writebacks       1941050723                       # Total bandwidth to/from this memory (bytes/s)
system.mem_ctrl.bw_total::cpu.inst         1135830395                       # Total bandwidth to/from this memory (bytes/s)
system.mem_ctrl.bw_total::cpu.data          809327285                       # Total bandwidth to/from this memory (bytes/s)
system.mem_ctrl.bw_total::total            3886208404                       # Total bandwidth to/from this memory (bytes/s)
system.mem_ctrl.readReqs                         7578                       # Number of read requests accepted
system.mem_ctrl.writeReqs                        7562                       # Number of write requests accepted
system.mem_ctrl.readBursts                       7578                       # Number of DRAM read bursts, including those serviced by the write queue
system.mem_ctrl.writeBursts                      7562                       # Number of DRAM write bursts, including those merged in the write queue
system.mem_ctrl.bytesReadDRAM                   80832                       # Total number of bytes read from DRAM
system.mem_ctrl.bytesReadWrQ                   404160                       # Total number of bytes read from write queue
system.mem_ctrl.bytesWritten                    80768                       # Total number of bytes written to DRAM
system.mem_ctrl.bytesReadSys                   484992                       # Total read bytes from the system interface side
system.mem_ctrl.bytesWrittenSys                483968                       # Total written bytes from the system interface side
system.mem_ctrl.servicedByWrQ                    6315                       # Number of DRAM read bursts serviced by the write queue
system.mem_ctrl.mergedWrBursts                   6277                       # Number of DRAM write bursts merged with an existing one
system.mem_ctrl.neitherReadNorWriteReqs             0                       # Number of requests that are neither read nor write
system.mem_ctrl.perBankRdBursts::0                 79                       # Per bank write bursts
system.mem_ctrl.perBankRdBursts::1                  0                       # Per bank write bursts
system.mem_ctrl.perBankRdBursts::2                171                       # Per bank write bursts
system.mem_ctrl.perBankRdBursts::3                162                       # Per bank write bursts
system.mem_ctrl.perBankRdBursts::4                101                       # Per bank write bursts
system.mem_ctrl.perBankRdBursts::5                 40                       # Per bank write bursts
system.mem_ctrl.perBankRdBursts::6                 70                       # Per bank write bursts
system.mem_ctrl.perBankRdBursts::7                 91                       # Per bank write bursts
system.mem_ctrl.perBankRdBursts::8                 38                       # Per bank write bursts
system.mem_ctrl.perBankRdBursts::9                177                       # Per bank write bursts
system.mem_ctrl.perBankRdBursts::10               122                       # Per bank write bursts
system.mem_ctrl.perBankRdBursts::11                47                       # Per bank write bursts
system.mem_ctrl.perBankRdBursts::12                15                       # Per bank write bursts
system.mem_ctrl.perBankRdBursts::13                18                       # Per bank write bursts
system.mem_ctrl.perBankRdBursts::14                62                       # Per bank write bursts
system.mem_ctrl.perBankRdBursts::15                70                       # Per bank write bursts
system.mem_ctrl.perBankWrBursts::0                 77                       # Per bank write bursts
system.mem_ctrl.perBankWrBursts::1                  0                       # Per bank write bursts
system.mem_ctrl.perBankWrBursts::2                164                       # Per bank write bursts
system.mem_ctrl.perBankWrBursts::3                164                       # Per bank write bursts
system.mem_ctrl.perBankWrBursts::4                100                       # Per bank write bursts
system.mem_ctrl.perBankWrBursts::5                 41                       # Per bank write bursts
system.mem_ctrl.perBankWrBursts::6                 72                       # Per bank write bursts
system.mem_ctrl.perBankWrBursts::7                 85                       # Per bank write bursts
system.mem_ctrl.perBankWrBursts::8                 40                       # Per bank write bursts
system.mem_ctrl.perBankWrBursts::9                185                       # Per bank write bursts
system.mem_ctrl.perBankWrBursts::10               123                       # Per bank write bursts
system.mem_ctrl.perBankWrBursts::11                47                       # Per bank write bursts
system.mem_ctrl.perBankWrBursts::12                14                       # Per bank write bursts
system.mem_ctrl.perBankWrBursts::13                18                       # Per bank write bursts
system.mem_ctrl.perBankWrBursts::14                62                       # Per bank write bursts
system.mem_ctrl.perBankWrBursts::15                70                       # Per bank write bursts
system.mem_ctrl.numRdRetry                          0                       # Number of times read queue was full causing retry
system.mem_ctrl.numWrRetry                          0                       # Number of times write queue was full causing retry
system.mem_ctrl.totGap                      249329000                       # Total gap between requests
system.mem_ctrl.readPktSize::0                      0                       # Read request sizes (log2)
system.mem_ctrl.readPktSize::1                      0                       # Read request sizes (log2)
system.mem_ctrl.readPktSize::2                      0                       # Read request sizes (log2)
system.mem_ctrl.readPktSize::3                      0                       # Read request sizes (log2)
system.mem_ctrl.readPktSize::4                      0                       # Read request sizes (log2)
system.mem_ctrl.readPktSize::5                      0                       # Read request sizes (log2)
system.mem_ctrl.readPktSize::6                   7578                       # Read request sizes (log2)
system.mem_ctrl.writePktSize::0                     0                       # Write request sizes (log2)
system.mem_ctrl.writePktSize::1                     0                       # Write request sizes (log2)
system.mem_ctrl.writePktSize::2                     0                       # Write request sizes (log2)
system.mem_ctrl.writePktSize::3                     0                       # Write request sizes (log2)
system.mem_ctrl.writePktSize::4                     0                       # Write request sizes (log2)
system.mem_ctrl.writePktSize::5                     0                       # Write request sizes (log2)
system.mem_ctrl.writePktSize::6                  7562                       # Write request sizes (log2)
system.mem_ctrl.rdQLenPdf::0                     1263                       # What read queue length does an incoming req see
system.mem_ctrl.rdQLenPdf::1                        0                       # What read queue length does an incoming req see
system.mem_ctrl.rdQLenPdf::2                        0                       # What read queue length does an incoming req see
system.mem_ctrl.rdQLenPdf::3                        0                       # What read queue length does an incoming req see
system.mem_ctrl.rdQLenPdf::4                        0                       # What read queue length does an incoming req see
system.mem_ctrl.rdQLenPdf::5                        0                       # What read queue length does an incoming req see
system.mem_ctrl.rdQLenPdf::6                        0                       # What read queue length does an incoming req see
system.mem_ctrl.rdQLenPdf::7                        0                       # What read queue length does an incoming req see
system.mem_ctrl.rdQLenPdf::8                        0                       # What read queue length does an incoming req see
system.mem_ctrl.rdQLenPdf::9                        0                       # What read queue length does an incoming req see
system.mem_ctrl.rdQLenPdf::10                       0                       # What read queue length does an incoming req see
system.mem_ctrl.rdQLenPdf::11                       0                       # What read queue length does an incoming req see
system.mem_ctrl.rdQLenPdf::12                       0                       # What read queue length does an incoming req see
system.mem_ctrl.rdQLenPdf::13                       0                       # What read queue length does an incoming req see
system.mem_ctrl.rdQLenPdf::14                       0                       # What read queue length does an incoming req see
system.mem_ctrl.rdQLenPdf::15                       0                       # What read queue length does an incoming req see
system.mem_ctrl.rdQLenPdf::16                       0                       # What read queue length does an incoming req see
system.mem_ctrl.rdQLenPdf::17                       0                       # What read queue length does an incoming req see
system.mem_ctrl.rdQLenPdf::18                       0                       # What read queue length does an incoming req see
system.mem_ctrl.rdQLenPdf::19                       0                       # What read queue length does an incoming req see
system.mem_ctrl.rdQLenPdf::20                       0                       # What read queue length does an incoming req see
system.mem_ctrl.rdQLenPdf::21                       0                       # What read queue length does an incoming req see
system.mem_ctrl.rdQLenPdf::22                       0                       # What read queue length does an incoming req see
system.mem_ctrl.rdQLenPdf::23                       0                       # What read queue length does an incoming req see
system.mem_ctrl.rdQLenPdf::24                       0                       # What read queue length does an incoming req see
system.mem_ctrl.rdQLenPdf::25                       0                       # What read queue length does an incoming req see
system.mem_ctrl.rdQLenPdf::26                       0                       # What read queue length does an incoming req see
system.mem_ctrl.rdQLenPdf::27                       0                       # What read queue length does an incoming req see
system.mem_ctrl.rdQLenPdf::28                       0                       # What read queue length does an incoming req see
system.mem_ctrl.rdQLenPdf::29                       0                       # What read queue length does an incoming req see
system.mem_ctrl.rdQLenPdf::30                       0                       # What read queue length does an incoming req see
system.mem_ctrl.rdQLenPdf::31                       0                       # What read queue length does an incoming req see
system.mem_ctrl.wrQLenPdf::0                        1                       # What write queue length does an incoming req see
system.mem_ctrl.wrQLenPdf::1                        1                       # What write queue length does an incoming req see
system.mem_ctrl.wrQLenPdf::2                        1                       # What write queue length does an incoming req see
system.mem_ctrl.wrQLenPdf::3                        1                       # What write queue length does an incoming req see
system.mem_ctrl.wrQLenPdf::4                        1                       # What write queue length does an incoming req see
system.mem_ctrl.wrQLenPdf::5                        1                       # What write queue length does an incoming req see
system.mem_ctrl.wrQLenPdf::6                        1                       # What write queue length does an incoming req see
system.mem_ctrl.wrQLenPdf::7                        1                       # What write queue length does an incoming req see
system.mem_ctrl.wrQLenPdf::8                        1                       # What write queue length does an incoming req see
system.mem_ctrl.wrQLenPdf::9                        1                       # What write queue length does an incoming req see
system.mem_ctrl.wrQLenPdf::10                       1                       # What write queue length does an incoming req see
system.mem_ctrl.wrQLenPdf::11                       1                       # What write queue length does an incoming req see
system.mem_ctrl.wrQLenPdf::12                       1                       # What write queue length does an incoming req see
system.mem_ctrl.wrQLenPdf::13                       1                       # What write queue length does an incoming req see
system.mem_ctrl.wrQLenPdf::14                       1                       # What write queue length does an incoming req see
system.mem_ctrl.wrQLenPdf::15                      23                       # What write queue length does an incoming req see
system.mem_ctrl.wrQLenPdf::16                      25                       # What write queue length does an incoming req see
system.mem_ctrl.wrQLenPdf::17                      64                       # What write queue length does an incoming req see
system.mem_ctrl.wrQLenPdf::18                      80                       # What write queue length does an incoming req see
system.mem_ctrl.wrQLenPdf::19                      78                       # What write queue length does an incoming req see
system.mem_ctrl.wrQLenPdf::20                      77                       # What write queue length does an incoming req see
system.mem_ctrl.wrQLenPdf::21                      76                       # What write queue length does an incoming req see
system.mem_ctrl.wrQLenPdf::22                      77                       # What write queue length does an incoming req see
system.mem_ctrl.wrQLenPdf::23                      94                       # What write queue length does an incoming req see
system.mem_ctrl.wrQLenPdf::24                      76                       # What write queue length does an incoming req see
system.mem_ctrl.wrQLenPdf::25                      75                       # What write queue length does an incoming req see
system.mem_ctrl.wrQLenPdf::26                      75                       # What write queue length does an incoming req see
system.mem_ctrl.wrQLenPdf::27                      75                       # What write queue length does an incoming req see
system.mem_ctrl.wrQLenPdf::28                      75                       # What write queue length does an incoming req see
system.mem_ctrl.wrQLenPdf::29                      75                       # What write queue length does an incoming req see
system.mem_ctrl.wrQLenPdf::30                      75                       # What write queue length does an incoming req see
system.mem_ctrl.wrQLenPdf::31                      75                       # What write queue length does an incoming req see
system.mem_ctrl.wrQLenPdf::32                      75                       # What write queue length does an incoming req see
system.mem_ctrl.wrQLenPdf::33                       0                       # What write queue length does an incoming req see
system.mem_ctrl.wrQLenPdf::34                       0                       # What write queue length does an incoming req see
system.mem_ctrl.wrQLenPdf::35                       0                       # What write queue length does an incoming req see
system.mem_ctrl.wrQLenPdf::36                       0                       # What write queue length does an incoming req see
system.mem_ctrl.wrQLenPdf::37                       0                       # What write queue length does an incoming req see
system.mem_ctrl.wrQLenPdf::38                       0                       # What write queue length does an incoming req see
system.mem_ctrl.wrQLenPdf::39                       0                       # What write queue length does an incoming req see
system.mem_ctrl.wrQLenPdf::40                       0                       # What write queue length does an incoming req see
system.mem_ctrl.wrQLenPdf::41                       0                       # What write queue length does an incoming req see
system.mem_ctrl.wrQLenPdf::42                       0                       # What write queue length does an incoming req see
system.mem_ctrl.wrQLenPdf::43                       0                       # What write queue length does an incoming req see
system.mem_ctrl.wrQLenPdf::44                       0                       # What write queue length does an incoming req see
system.mem_ctrl.wrQLenPdf::45                       0                       # What write queue length does an incoming req see
system.mem_ctrl.wrQLenPdf::46                       0                       # What write queue length does an incoming req see
system.mem_ctrl.wrQLenPdf::47                       0                       # What write queue length does an incoming req see
system.mem_ctrl.wrQLenPdf::48                       0                       # What write queue length does an incoming req see
system.mem_ctrl.wrQLenPdf::49                       0                       # What write queue length does an incoming req see
system.mem_ctrl.wrQLenPdf::50                       0                       # What write queue length does an incoming req see
system.mem_ctrl.wrQLenPdf::51                       0                       # What write queue length does an incoming req see
system.mem_ctrl.wrQLenPdf::52                       0                       # What write queue length does an incoming req see
system.mem_ctrl.wrQLenPdf::53                       0                       # What write queue length does an incoming req see
system.mem_ctrl.wrQLenPdf::54                       0                       # What write queue length does an incoming req see
system.mem_ctrl.wrQLenPdf::55                       0                       # What write queue length does an incoming req see
system.mem_ctrl.wrQLenPdf::56                       0                       # What write queue length does an incoming req see
system.mem_ctrl.wrQLenPdf::57                       0                       # What write queue length does an incoming req see
system.mem_ctrl.wrQLenPdf::58                       0                       # What write queue length does an incoming req see
system.mem_ctrl.wrQLenPdf::59                       0                       # What write queue length does an incoming req see
system.mem_ctrl.wrQLenPdf::60                       0                       # What write queue length does an incoming req see
system.mem_ctrl.wrQLenPdf::61                       0                       # What write queue length does an incoming req see
system.mem_ctrl.wrQLenPdf::62                       0                       # What write queue length does an incoming req see
system.mem_ctrl.wrQLenPdf::63                       0                       # What write queue length does an incoming req see
system.mem_ctrl.bytesPerActivate::samples          389                       # Bytes accessed per row activation
system.mem_ctrl.bytesPerActivate::mean     413.449871                       # Bytes accessed per row activation
system.mem_ctrl.bytesPerActivate::gmean    275.779242                       # Bytes accessed per row activation
system.mem_ctrl.bytesPerActivate::stdev    341.429010                       # Bytes accessed per row activation
system.mem_ctrl.bytesPerActivate::0-127            67     17.22%     17.22% # Bytes accessed per row activation
system.mem_ctrl.bytesPerActivate::128-255           97     24.94%     42.16% # Bytes accessed per row activation
system.mem_ctrl.bytesPerActivate::256-383           60     15.42%     57.58% # Bytes accessed per row activation
system.mem_ctrl.bytesPerActivate::384-511           32      8.23%     65.81% # Bytes accessed per row activation
system.mem_ctrl.bytesPerActivate::512-639           23      5.91%     71.72% # Bytes accessed per row activation
system.mem_ctrl.bytesPerActivate::640-767           24      6.17%     77.89% # Bytes accessed per row activation
system.mem_ctrl.bytesPerActivate::768-895           17      4.37%     82.26% # Bytes accessed per row activation
system.mem_ctrl.bytesPerActivate::896-1023           13      3.34%     85.60% # Bytes accessed per row activation
system.mem_ctrl.bytesPerActivate::1024-1151           56     14.40%    100.00% # Bytes accessed per row activation
system.mem_ctrl.bytesPerActivate::total           389                       # Bytes accessed per row activation
system.mem_ctrl.rdPerTurnAround::samples           75                       # Reads before turning the bus around for writes
system.mem_ctrl.rdPerTurnAround::mean       16.773333                       # Reads before turning the bus around for writes
system.mem_ctrl.rdPerTurnAround::gmean      16.537393                       # Reads before turning the bus around for writes
system.mem_ctrl.rdPerTurnAround::stdev       3.947539                       # Reads before turning the bus around for writes
system.mem_ctrl.rdPerTurnAround::14-15             18     24.00%     24.00% # Reads before turning the bus around for writes
system.mem_ctrl.rdPerTurnAround::16-17             42     56.00%     80.00% # Reads before turning the bus around for writes
system.mem_ctrl.rdPerTurnAround::18-19             14     18.67%     98.67% # Reads before turning the bus around for writes
system.mem_ctrl.rdPerTurnAround::48-49              1      1.33%    100.00% # Reads before turning the bus around for writes
system.mem_ctrl.rdPerTurnAround::total             75                       # Reads before turning the bus around for writes
system.mem_ctrl.wrPerTurnAround::samples           75                       # Writes before turning the bus around for reads
system.mem_ctrl.wrPerTurnAround::mean       16.826667                       # Writes before turning the bus around for reads
system.mem_ctrl.wrPerTurnAround::gmean      16.786956                       # Writes before turning the bus around for reads
system.mem_ctrl.wrPerTurnAround::stdev       1.189746                       # Writes before turning the bus around for reads
system.mem_ctrl.wrPerTurnAround::16                47     62.67%     62.67% # Writes before turning the bus around for reads
system.mem_ctrl.wrPerTurnAround::17                 6      8.00%     70.67% # Writes before turning the bus around for reads
system.mem_ctrl.wrPerTurnAround::18                11     14.67%     85.33% # Writes before turning the bus around for reads
system.mem_ctrl.wrPerTurnAround::19                10     13.33%     98.67% # Writes before turning the bus around for reads
system.mem_ctrl.wrPerTurnAround::20                 1      1.33%    100.00% # Writes before turning the bus around for reads
system.mem_ctrl.wrPerTurnAround::total             75                       # Writes before turning the bus around for reads
system.mem_ctrl.totQLat                      22278500                       # Total ticks spent queuing
system.mem_ctrl.totMemAccLat                 45959750                       # Total ticks spent from burst creation until serviced by the DRAM
system.mem_ctrl.totBusLat                     6315000                       # Total ticks spent in databus transfers
system.mem_ctrl.avgQLat                      17639.35                       # Average queueing delay per DRAM burst
system.mem_ctrl.avgBusLat                     5000.00                       # Average bus latency per DRAM burst
system.mem_ctrl.avgMemAccLat                 36389.35                       # Average memory access latency per DRAM burst
system.mem_ctrl.avgRdBW                        324.19                       # Average DRAM read bandwidth in MiByte/s
system.mem_ctrl.avgWrBW                        323.94                       # Average achieved write bandwidth in MiByte/s
system.mem_ctrl.avgRdBWSys                    1945.16                       # Average system read bandwidth in MiByte/s
system.mem_ctrl.avgWrBWSys                    1941.05                       # Average system write bandwidth in MiByte/s
system.mem_ctrl.peakBW                       12800.00                       # Theoretical peak bandwidth in MiByte/s
system.mem_ctrl.busUtil                          5.06                       # Data bus utilization in percentage
system.mem_ctrl.busUtilRead                      2.53                       # Data bus utilization in percentage for reads
system.mem_ctrl.busUtilWrite                     2.53                       # Data bus utilization in percentage for writes
system.mem_ctrl.avgRdQLen                        1.00                       # Average read queue length when enqueuing
system.mem_ctrl.avgWrQLen                       25.52                       # Average write queue length when enqueuing
system.mem_ctrl.readRowHits                       962                       # Number of row buffer hits during reads
system.mem_ctrl.writeRowHits                     1169                       # Number of row buffer hits during writes
system.mem_ctrl.readRowHitRate                  76.17                       # Row buffer hit rate for reads
system.mem_ctrl.writeRowHitRate                 90.97                       # Row buffer hit rate for writes
system.mem_ctrl.avgGap                       16468.23                       # Average gap between requests
system.mem_ctrl.pageHitRate                     83.63                       # Row buffer hit rate, read and write combined
system.mem_ctrl_0.actEnergy                   1420860                       # Energy for activate commands per rank (pJ)
system.mem_ctrl_0.preEnergy                    740025                       # Energy for precharge commands per rank (pJ)
system.mem_ctrl_0.readEnergy                  5097960                       # Energy for read commands per rank (pJ)
system.mem_ctrl_0.writeEnergy                 3669660                       # Energy for write commands per rank (pJ)
system.mem_ctrl_0.refreshEnergy          19668480.000000                       # Energy for refresh commands per rank (pJ)
system.mem_ctrl_0.actBackEnergy              20948070                       # Energy for active background per rank (pJ)
system.mem_ctrl_0.preBackEnergy                506880                       # Energy for precharge background per rank (pJ)
system.mem_ctrl_0.actPowerDownEnergy         83132220                       # Energy for active power-down per rank (pJ)
system.mem_ctrl_0.prePowerDownEnergy          6806880                       # Energy for precharge power-down per rank (pJ)
system.mem_ctrl_0.selfRefreshEnergy           1042140                       # Energy for self refresh per rank (pJ)
system.mem_ctrl_0.totalEnergy               143033175                       # Total energy per rank (pJ)
system.mem_ctrl_0.averagePower             573.661508                       # Core power per rank (mW)
system.mem_ctrl_0.totalIdleTime             201751500                       # Total Idle time Per DRAM Rank
system.mem_ctrl_0.memoryStateTime::IDLE        433000                       # Time in different power states
system.mem_ctrl_0.memoryStateTime::REF        8326000                       # Time in different power states
system.mem_ctrl_0.memoryStateTime::SREF       2041250                       # Time in different power states
system.mem_ctrl_0.memoryStateTime::PRE_PDN     17722250                       # Time in different power states
system.mem_ctrl_0.memoryStateTime::ACT       38497250                       # Time in different power states
system.mem_ctrl_0.memoryStateTime::ACT_PDN    182313250                       # Time in different power states
system.mem_ctrl_1.actEnergy                   1392300                       # Energy for activate commands per rank (pJ)
system.mem_ctrl_1.preEnergy                    736230                       # Energy for precharge commands per rank (pJ)
system.mem_ctrl_1.readEnergy                  3919860                       # Energy for read commands per rank (pJ)
system.mem_ctrl_1.writeEnergy                 2917980                       # Energy for write commands per rank (pJ)
system.mem_ctrl_1.refreshEnergy          19668480.000000                       # Energy for refresh commands per rank (pJ)
system.mem_ctrl_1.actBackEnergy              21217680                       # Energy for active background per rank (pJ)
system.mem_ctrl_1.preBackEnergy                736800                       # Energy for precharge background per rank (pJ)
system.mem_ctrl_1.actPowerDownEnergy         77374080                       # Energy for active power-down per rank (pJ)
system.mem_ctrl_1.prePowerDownEnergy          9325440                       # Energy for precharge power-down per rank (pJ)
system.mem_ctrl_1.selfRefreshEnergy           2213040                       # Energy for self refresh per rank (pJ)
system.mem_ctrl_1.totalEnergy               139501890                       # Total energy per rank (pJ)
system.mem_ctrl_1.averagePower             559.498624                       # Core power per rank (mW)
system.mem_ctrl_1.totalIdleTime             200722500                       # Total Idle time Per DRAM Rank
system.mem_ctrl_1.memoryStateTime::IDLE        995500                       # Time in different power states
system.mem_ctrl_1.memoryStateTime::REF        8326000                       # Time in different power states
system.mem_ctrl_1.memoryStateTime::SREF       6920250                       # Time in different power states
system.mem_ctrl_1.memoryStateTime::PRE_PDN     24282250                       # Time in different power states
system.mem_ctrl_1.memoryStateTime::ACT       39105500                       # Time in different power states
system.mem_ctrl_1.memoryStateTime::ACT_PDN    169703500                       # Time in different power states
system.pwrStateResidencyTicks::UNDEFINED    249333000                       # Cumulative time (in ticks) in various power states
system.cache.pwrStateResidencyTicks::UNDEFINED    249333000                       # Cumulative time (in ticks) in various power states
system.cache.hits                                5987                       # Number of hits
system.cache.misses                              7578                       # Number of misses
system.cache.missLatency::samples                7578                       # Ticks for misses to the cache
system.cache.missLatency::mean           31112.166799                       # Ticks for misses to the cache
system.cache.missLatency::gmean          27739.655859                       # Ticks for misses to the cache
system.cache.missLatency::stdev          24317.769652                       # Ticks for misses to the cache
system.cache.missLatency::0-65535                7261     95.82%     95.82% # Ticks for misses to the cache
system.cache.missLatency::65536-131071            255      3.37%     99.18% # Ticks for misses to the cache
system.cache.missLatency::131072-196607            35      0.46%     99.64% # Ticks for misses to the cache
system.cache.missLatency::196608-262143             9      0.12%     99.76% # Ticks for misses to the cache
system.cache.missLatency::262144-327679            10      0.13%     99.89% # Ticks for misses to the cache
system.cache.missLatency::327680-393215             5      0.07%     99.96% # Ticks for misses to the cache
system.cache.missLatency::393216-458751             1      0.01%     99.97% # Ticks for misses to the cache
system.cache.missLatency::458752-524287             0      0.00%     99.97% # Ticks for misses to the cache
system.cache.missLatency::524288-589823             0      0.00%     99.97% # Ticks for misses to the cache
system.cache.missLatency::589824-655359             2      0.03%    100.00% # Ticks for misses to the cache
system.cache.missLatency::655360-720895             0      0.00%    100.00% # Ticks for misses to the cache
system.cache.missLatency::720896-786431             0      0.00%    100.00% # Ticks for misses to the cache
system.cache.missLatency::786432-851967             0      0.00%    100.00% # Ticks for misses to the cache
system.cache.missLatency::851968-917503             0      0.00%    100.00% # Ticks for misses to the cache
system.cache.missLatency::917504-983039             0      0.00%    100.00% # Ticks for misses to the cache
system.cache.missLatency::983040-1.04858e+06            0      0.00%    100.00% # Ticks for misses to the cache
system.cache.missLatency::total                  7578                       # Ticks for misses to the cache
system.cache.hitRatio                        0.441356                       # The ratio of hits to the total accesses to the cache
system.cpu.dtb.fetch_hits                           0                       # ITB hits
system.cpu.dtb.fetch_misses                         0                       # ITB misses
system.cpu.dtb.fetch_acv                            0                       # ITB acv
system.cpu.dtb.fetch_accesses                       0                       # ITB accesses
system.cpu.dtb.read_hits                         1982                       # DTB read hits
system.cpu.dtb.read_misses                         12                       # DTB read misses
system.cpu.dtb.read_acv                             0                       # DTB read access violations
system.cpu.dtb.read_accesses                     1994                       # DTB read accesses
system.cpu.dtb.write_hits                        1240                       # DTB write hits
system.cpu.dtb.write_misses                         2                       # DTB write misses
system.cpu.dtb.write_acv                            0                       # DTB write access violations
system.cpu.dtb.write_accesses                    1242                       # DTB write accesses
system.cpu.dtb.data_hits                         3222                       # DTB hits
system.cpu.dtb.data_misses                         14                       # DTB misses
system.cpu.dtb.data_acv                             0                       # DTB access violations
system.cpu.dtb.data_accesses                     3236                       # DTB accesses
system.cpu.itb.fetch_hits                       10344                       # ITB hits
system.cpu.itb.fetch_misses                        24                       # ITB misses
system.cpu.itb.fetch_acv                            0                       # ITB acv
system.cpu.itb.fetch_accesses                   10368                       # ITB accesses
system.cpu.itb.read_hits                            0                       # DTB read hits
system.cpu.itb.read_misses                          0                       # DTB read misses
system.cpu.itb.read_acv                             0                       # DTB read access violations
system.cpu.itb.read_accesses                        0                       # DTB read accesses
system.cpu.itb.write_hits                           0                       # DTB write hits
system.cpu.itb.write_misses                         0                       # DTB write misses
system.cpu.itb.write_acv                            0                       # DTB write access violations
system.cpu.itb.write_accesses                       0                       # DTB write accesses
system.cpu.itb.data_hits                            0                       # DTB hits
system.cpu.itb.data_misses                          0                       # DTB misses
system.cpu.itb.data_acv                             0                       # DTB access violations
system.cpu.itb.data_accesses                        0                       # DTB accesses
system.cpu.workload.numSyscalls                    10                       # Number of system calls
system.cpu.pwrStateResidencyTicks::ON       249333000                       # Cumulative time (in ticks) in various power states
system.cpu.numCycles                           249333                       # number of cpu cycles simulated
system.cpu.numWorkItemsStarted                      0                       # number of work items this cpu started
system.cpu.numWorkItemsCompleted                    0                       # number of work items this cpu completed
system.cpu.committedInsts                       10329                       # Number of instructions committed
system.cpu.committedOps                         10329                       # Number of ops (including micro ops) committed
system.cpu.num_int_alu_accesses                 10181                       # Number of integer alu accesses
system.cpu.num_fp_alu_accesses                     16                       # Number of float alu accesses
system.cpu.num_vec_alu_accesses                     0                       # Number of vector alu accesses
system.cpu.num_func_calls                         357                       # number of times a function call or return occured
system.cpu.num_conditional_control_insts         1146                       # number of instructions that are conditional controls
system.cpu.num_int_insts                        10181                       # number of integer instructions
system.cpu.num_fp_insts                            16                       # number of float instructions
system.cpu.num_vec_insts                            0                       # number of vector instructions
system.cpu.num_int_register_reads               13900                       # number of times the integer registers were read
system.cpu.num_int_register_writes               7590                       # number of times the integer registers were written
system.cpu.num_fp_register_reads                   14                       # number of times the floating registers were read
system.cpu.num_fp_register_writes                   2                       # number of times the floating registers were written
system.cpu.num_vec_register_reads                   0                       # number of times the vector registers were read
system.cpu.num_vec_register_writes                  0                       # number of times the vector registers were written
system.cpu.num_mem_refs                          3236                       # number of memory refs
system.cpu.num_load_insts                        1994                       # Number of load instructions
system.cpu.num_store_insts                       1242                       # Number of store instructions
system.cpu.num_idle_cycles                          0                       # Number of idle cycles
system.cpu.num_busy_cycles                     249333                       # Number of busy cycles
system.cpu.not_idle_fraction                        1                       # Percentage of non-idle cycles
system.cpu.idle_fraction                            0                       # Percentage of idle cycles
system.cpu.Branches                              1604                       # Number of branches fetched
system.cpu.op_class::No_OpClass                    67      0.65%      0.65% # Class of executed instruction
system.cpu.op_class::IntAlu                      6997     67.65%     68.30% # Class of executed instruction
system.cpu.op_class::IntMult                       41      0.40%     68.69% # Class of executed instruction
system.cpu.op_class::IntDiv                         0      0.00%     68.69% # Class of executed instruction
system.cpu.op_class::FloatAdd                       2      0.02%     68.71% # Class of executed instruction
system.cpu.op_class::FloatCmp                       0      0.00%     68.71% # Class of executed instruction
system.cpu.op_class::FloatCvt                       0      0.00%     68.71% # Class of executed instruction
system.cpu.op_class::FloatMult                      0      0.00%     68.71% # Class of executed instruction
system.cpu.op_class::FloatMultAcc                   0      0.00%     68.71% # Class of executed instruction
system.cpu.op_class::FloatDiv                       0      0.00%     68.71% # Class of executed instruction
system.cpu.op_class::FloatMisc                      0      0.00%     68.71% # Class of executed instruction
system.cpu.op_class::FloatSqrt                      0      0.00%     68.71% # Class of executed instruction
system.cpu.op_class::SimdAdd                        0      0.00%     68.71% # Class of executed instruction
system.cpu.op_class::SimdAddAcc                     0      0.00%     68.71% # Class of executed instruction
system.cpu.op_class::SimdAlu                        0      0.00%     68.71% # Class of executed instruction
system.cpu.op_class::SimdCmp                        0      0.00%     68.71% # Class of executed instruction
system.cpu.op_class::SimdCvt                        0      0.00%     68.71% # Class of executed instruction
system.cpu.op_class::SimdMisc                       0      0.00%     68.71% # Class of executed instruction
system.cpu.op_class::SimdMult                       0      0.00%     68.71% # Class of executed instruction
system.cpu.op_class::SimdMultAcc                    0      0.00%     68.71% # Class of executed instruction
system.cpu.op_class::SimdShift                      0      0.00%     68.71% # Class of executed instruction
system.cpu.op_class::SimdShiftAcc                   0      0.00%     68.71% # Class of executed instruction
system.cpu.op_class::SimdSqrt                       0      0.00%     68.71% # Class of executed instruction
system.cpu.op_class::SimdFloatAdd                   0      0.00%     68.71% # Class of executed instruction
system.cpu.op_class::SimdFloatAlu                   0      0.00%     68.71% # Class of executed instruction
system.cpu.op_class::SimdFloatCmp                   0      0.00%     68.71% # Class of executed instruction
system.cpu.op_class::SimdFloatCvt                   0      0.00%     68.71% # Class of executed instruction
system.cpu.op_class::SimdFloatDiv                   0      0.00%     68.71% # Class of executed instruction
system.cpu.op_class::SimdFloatMisc                  0      0.00%     68.71% # Class of executed instruction
system.cpu.op_class::SimdFloatMult                  0      0.00%     68.71% # Class of executed instruction
system.cpu.op_class::SimdFloatMultAcc               0      0.00%     68.71% # Class of executed instruction
system.cpu.op_class::SimdFloatSqrt                  0      0.00%     68.71% # Class of executed instruction
system.cpu.op_class::MemRead                     1993     19.27%     87.98% # Class of executed instruction
system.cpu.op_class::MemWrite                    1229     11.88%     99.86% # Class of executed instruction
system.cpu.op_class::FloatMemRead                   1      0.01%     99.87% # Class of executed instruction
system.cpu.op_class::FloatMemWrite                 13      0.13%    100.00% # Class of executed instruction
system.cpu.op_class::IprAccess                      0      0.00%    100.00% # Class of executed instruction
system.cpu.op_class::InstPrefetch                   0      0.00%    100.00% # Class of executed instruction
system.cpu.op_class::total                      10343                       # Class of executed instruction
system.membus.snoop_filter.tot_requests             0                       # Total number of requests made to the snoop filter.
system.membus.snoop_filter.hit_single_requests            0                       # Number of requests hitting in the snoop filter with a single holder of the requested data.
system.membus.snoop_filter.hit_multi_requests            0                       # Number of requests hitting in the snoop filter with multiple (>1) holders of the requested data.
system.membus.snoop_filter.tot_snoops               0                       # Total number of snoops made to the snoop filter.
system.membus.snoop_filter.hit_single_snoops            0                       # Number of snoops hitting in the snoop filter with a single holder of the requested data.
system.membus.snoop_filter.hit_multi_snoops            0                       # Number of snoops hitting in the snoop filter with multiple (>1) holders of the requested data.
system.membus.pwrStateResidencyTicks::UNDEFINED    249333000                       # Cumulative time (in ticks) in various power states
system.membus.trans_dist::ReadReq                7578                       # Transaction distribution
system.membus.trans_dist::ReadResp               7578                       # Transaction distribution
system.membus.trans_dist::WritebackDirty         7562                       # Transaction distribution
system.membus.pkt_count_system.cache.mem_side::system.mem_ctrl.port        22718                       # Packet count per connected master and slave (bytes)
system.membus.pkt_count::total                  22718                       # Packet count per connected master and slave (bytes)
system.membus.pkt_size_system.cache.mem_side::system.mem_ctrl.port       968960                       # Cumulative packet size per connected master and slave (bytes)
system.membus.pkt_size::total                  968960                       # Cumulative packet size per connected master and slave (bytes)
system.membus.snoops                                0                       # Total snoops (count)
system.membus.snoopTraffic                          0                       # Total snoop traffic (bytes)
system.membus.snoop_fanout::samples              7578                       # Request fanout histogram
system.membus.snoop_fanout::mean                    0                       # Request fanout histogram
system.membus.snoop_fanout::stdev                   0                       # Request fanout histogram
system.membus.snoop_fanout::underflows              0      0.00%      0.00% # Request fanout histogram
system.membus.snoop_fanout::0                    7578    100.00%    100.00% # Request fanout histogram
system.membus.snoop_fanout::overflows               0      0.00%    100.00% # Request fanout histogram
system.membus.snoop_fanout::min_value               0                       # Request fanout histogram
system.membus.snoop_fanout::max_value               0                       # Request fanout histogram
system.membus.snoop_fanout::total                7578                       # Request fanout histogram
system.membus.reqLayer0.occupancy            45388000                       # Layer occupancy (ticks)
system.membus.reqLayer0.utilization              18.2                       # Layer utilization (%)
system.membus.respLayer0.occupancy           38283250                       # Layer occupancy (ticks)
system.membus.respLayer0.utilization             15.4                       # Layer utilization (%)

---------- End Simulation Statistics   ----------
