
---------- Begin Simulation Statistics ----------
sim_seconds                                  0.000102                       # Number of seconds simulated
sim_ticks                                   102095000                       # Number of ticks simulated
final_tick                                  102095000                       # Number of ticks from beginning of simulation (restored from checkpoints and never reset)
sim_freq                                 1000000000000                       # Frequency of simulated ticks
host_inst_rate                                 482506                       # Simulator instruction rate (inst/s)
host_op_rate                                   481943                       # Simulator op (including micro ops) rate (op/s)
host_tick_rate                             4758786240                       # Simulator tick rate (ticks/s)
host_mem_usage                                8485376                       # Number of bytes of host memory used
host_seconds                                     0.02                       # Real time elapsed on the host
sim_insts                                       10329                       # Number of instructions simulated
sim_ops                                         10329                       # Number of ops (including micro ops) simulated
system.clk_domain.voltage_domain.voltage            1                       # Voltage in Volts
system.clk_domain.clock                          1000                       # Clock period in ticks
system.mem_ctrl.pwrStateResidencyTicks::UNDEFINED    102095000                       # Cumulative time (in ticks) in various power states
system.mem_ctrl.bytes_read::cpu.inst            55040                       # Number of bytes read from this memory
system.mem_ctrl.bytes_read::cpu.data            58112                       # Number of bytes read from this memory
system.mem_ctrl.bytes_read::total              113152                       # Number of bytes read from this memory
system.mem_ctrl.bytes_inst_read::cpu.inst        55040                       # Number of instructions bytes read from this memory
system.mem_ctrl.bytes_inst_read::total          55040                       # Number of instructions bytes read from this memory
system.mem_ctrl.bytes_written::writebacks       112128                       # Number of bytes written to this memory
system.mem_ctrl.bytes_written::total           112128                       # Number of bytes written to this memory
system.mem_ctrl.num_reads::cpu.inst               860                       # Number of read requests responded to by this memory
system.mem_ctrl.num_reads::cpu.data               908                       # Number of read requests responded to by this memory
system.mem_ctrl.num_reads::total                 1768                       # Number of read requests responded to by this memory
system.mem_ctrl.num_writes::writebacks           1752                       # Number of write requests responded to by this memory
system.mem_ctrl.num_writes::total                1752                       # Number of write requests responded to by this memory
system.mem_ctrl.bw_read::cpu.inst           539105735                       # Total read bandwidth from this memory (bytes/s)
system.mem_ctrl.bw_read::cpu.data           569195357                       # Total read bandwidth from this memory (bytes/s)
system.mem_ctrl.bw_read::total             1108301092                       # Total read bandwidth from this memory (bytes/s)
system.mem_ctrl.bw_inst_read::cpu.inst      539105735                       # Instruction read bandwidth from this memory (bytes/s)
system.mem_ctrl.bw_inst_read::total         539105735                       # Instruction read bandwidth from this memory (bytes/s)
system.mem_ctrl.bw_write::writebacks       1098271218                       # Write bandwidth from this memory (bytes/s)
system.mem_ctrl.bw_write::total            1098271218                       # Write bandwidth from this memory (bytes/s)
system.mem_ctrl.bw_total::writebacks       1098271218                       # Total bandwidth to/from this memory (bytes/s)
system.mem_ctrl.bw_total::cpu.inst          539105735                       # Total bandwidth to/from this memory (bytes/s)
system.mem_ctrl.bw_total::cpu.data          569195357                       # Total bandwidth to/from this memory (bytes/s)
system.mem_ctrl.bw_total::total            2206572310                       # Total bandwidth to/from this memory (bytes/s)
system.mem_ctrl.readReqs                         1768                       # Number of read requests accepted
system.mem_ctrl.writeReqs                        1752                       # Number of write requests accepted
system.mem_ctrl.readBursts                       1768                       # Number of DRAM read bursts, including those serviced by the write queue
system.mem_ctrl.writeBursts                      1752                       # Number of DRAM write bursts, including those merged in the write queue
system.mem_ctrl.bytesReadDRAM                   70656                       # Total number of bytes read from DRAM
system.mem_ctrl.bytesReadWrQ                    42496                       # Total number of bytes read from write queue
system.mem_ctrl.bytesWritten                    78720                       # Total number of bytes written to DRAM
system.mem_ctrl.bytesReadSys                   113152                       # Total read bytes from the system interface side
system.mem_ctrl.bytesWrittenSys                112128                       # Total written bytes from the system interface side
system.mem_ctrl.servicedByWrQ                     664                       # Number of DRAM read bursts serviced by the write queue
system.mem_ctrl.mergedWrBursts                    491                       # Number of DRAM write bursts merged with an existing one
system.mem_ctrl.neitherReadNorWriteReqs             0                       # Number of requests that are neither read nor write
system.mem_ctrl.perBankRdBursts::0                 79                       # Per bank write bursts
system.mem_ctrl.perBankRdBursts::1                  0                       # Per bank write bursts
system.mem_ctrl.perBankRdBursts::2                164                       # Per bank write bursts
system.mem_ctrl.perBankRdBursts::3                141                       # Per bank write bursts
system.mem_ctrl.perBankRdBursts::4                 85                       # Per bank write bursts
system.mem_ctrl.perBankRdBursts::5                 37                       # Per bank write bursts
system.mem_ctrl.perBankRdBursts::6                 71                       # Per bank write bursts
system.mem_ctrl.perBankRdBursts::7                 77                       # Per bank write bursts
system.mem_ctrl.perBankRdBursts::8                 36                       # Per bank write bursts
system.mem_ctrl.perBankRdBursts::9                127                       # Per bank write bursts
system.mem_ctrl.perBankRdBursts::10               100                       # Per bank write bursts
system.mem_ctrl.perBankRdBursts::11                42                       # Per bank write bursts
system.mem_ctrl.perBankRdBursts::12                13                       # Per bank write bursts
system.mem_ctrl.perBankRdBursts::13                16                       # Per bank write bursts
system.mem_ctrl.perBankRdBursts::14                58                       # Per bank write bursts
system.mem_ctrl.perBankRdBursts::15                58                       # Per bank write bursts
system.mem_ctrl.perBankWrBursts::0                 91                       # Per bank write bursts
system.mem_ctrl.perBankWrBursts::1                  0                       # Per bank write bursts
system.mem_ctrl.perBankWrBursts::2                174                       # Per bank write bursts
system.mem_ctrl.perBankWrBursts::3                160                       # Per bank write bursts
system.mem_ctrl.perBankWrBursts::4                 95                       # Per bank write bursts
system.mem_ctrl.perBankWrBursts::5                 40                       # Per bank write bursts
system.mem_ctrl.perBankWrBursts::6                 69                       # Per bank write bursts
system.mem_ctrl.perBankWrBursts::7                 85                       # Per bank write bursts
system.mem_ctrl.perBankWrBursts::8                 28                       # Per bank write bursts
system.mem_ctrl.perBankWrBursts::9                173                       # Per bank write bursts
system.mem_ctrl.perBankWrBursts::10               115                       # Per bank write bursts
system.mem_ctrl.perBankWrBursts::11                48                       # Per bank write bursts
system.mem_ctrl.perBankWrBursts::12                14                       # Per bank write bursts
system.mem_ctrl.perBankWrBursts::13                14                       # Per bank write bursts
system.mem_ctrl.perBankWrBursts::14                62                       # Per bank write bursts
system.mem_ctrl.perBankWrBursts::15                62                       # Per bank write bursts
system.mem_ctrl.numRdRetry                          0                       # Number of times read queue was full causing retry
system.mem_ctrl.numWrRetry                          0                       # Number of times write queue was full causing retry
system.mem_ctrl.totGap                      102082000                       # Total gap between requests
system.mem_ctrl.readPktSize::0                      0                       # Read request sizes (log2)
system.mem_ctrl.readPktSize::1                      0                       # Read request sizes (log2)
system.mem_ctrl.readPktSize::2                      0                       # Read request sizes (log2)
system.mem_ctrl.readPktSize::3                      0                       # Read request sizes (log2)
system.mem_ctrl.readPktSize::4                      0                       # Read request sizes (log2)
system.mem_ctrl.readPktSize::5                      0                       # Read request sizes (log2)
system.mem_ctrl.readPktSize::6                   1768                       # Read request sizes (log2)
system.mem_ctrl.writePktSize::0                     0                       # Write request sizes (log2)
system.mem_ctrl.writePktSize::1                     0                       # Write request sizes (log2)
system.mem_ctrl.writePktSize::2                     0                       # Write request sizes (log2)
system.mem_ctrl.writePktSize::3                     0                       # Write request sizes (log2)
system.mem_ctrl.writePktSize::4                     0                       # Write request sizes (log2)
system.mem_ctrl.writePktSize::5                     0                       # Write request sizes (log2)
system.mem_ctrl.writePktSize::6                  1752                       # Write request sizes (log2)
system.mem_ctrl.rdQLenPdf::0                     1104                       # What read queue length does an incoming req see
system.mem_ctrl.rdQLenPdf::1                        0                       # What read queue length does an incoming req see
system.mem_ctrl.rdQLenPdf::2                        0                       # What read queue length does an incoming req see
system.mem_ctrl.rdQLenPdf::3                        0                       # What read queue length does an incoming req see
system.mem_ctrl.rdQLenPdf::4                        0                       # What read queue length does an incoming req see
system.mem_ctrl.rdQLenPdf::5                        0                       # What read queue length does an incoming req see
system.mem_ctrl.rdQLenPdf::6                        0                       # What read queue length does an incoming req see
system.mem_ctrl.rdQLenPdf::7                        0                       # What read queue length does an incoming req see
system.mem_ctrl.rdQLenPdf::8                        0                       # What read queue length does an incoming req see
system.mem_ctrl.rdQLenPdf::9                        0                       # What read queue length does an incoming req see
system.mem_ctrl.rdQLenPdf::10                       0                       # What read queue length does an incoming req see
system.mem_ctrl.rdQLenPdf::11                       0                       # What read queue length does an incoming req see
system.mem_ctrl.rdQLenPdf::12                       0                       # What read queue length does an incoming req see
system.mem_ctrl.rdQLenPdf::13                       0                       # What read queue length does an incoming req see
system.mem_ctrl.rdQLenPdf::14                       0                       # What read queue length does an incoming req see
system.mem_ctrl.rdQLenPdf::15                       0                       # What read queue length does an incoming req see
system.mem_ctrl.rdQLenPdf::16                       0                       # What read queue length does an incoming req see
system.mem_ctrl.rdQLenPdf::17                       0                       # What read queue length does an incoming req see
system.mem_ctrl.rdQLenPdf::18                       0                       # What read queue length does an incoming req see
system.mem_ctrl.rdQLenPdf::19                       0                       # What read queue length does an incoming req see
system.mem_ctrl.rdQLenPdf::20                       0                       # What read queue length does an incoming req see
system.mem_ctrl.rdQLenPdf::21                       0                       # What read queue length does an incoming req see
system.mem_ctrl.rdQLenPdf::22                       0                       # What read queue length does an incoming req see
system.mem_ctrl.rdQLenPdf::23                       0                       # What read queue length does an incoming req see
system.mem_ctrl.rdQLenPdf::24                       0                       # What read queue length does an incoming req see
system.mem_ctrl.rdQLenPdf::25                       0                       # What read queue length does an incoming req see
system.mem_ctrl.rdQLenPdf::26                       0                       # What read queue length does an incoming req see
system.mem_ctrl.rdQLenPdf::27                       0                       # What read queue length does an incoming req see
system.mem_ctrl.rdQLenPdf::28                       0                       # What read queue length does an incoming req see
system.mem_ctrl.rdQLenPdf::29                       0                       # What read queue length does an incoming req see
system.mem_ctrl.rdQLenPdf::30                       0                       # What read queue length does an incoming req see
system.mem_ctrl.rdQLenPdf::31                       0                       # What read queue length does an incoming req see
system.mem_ctrl.wrQLenPdf::0                        1                       # What write queue length does an incoming req see
system.mem_ctrl.wrQLenPdf::1                        1                       # What write queue length does an incoming req see
system.mem_ctrl.wrQLenPdf::2                        1                       # What write queue length does an incoming req see
system.mem_ctrl.wrQLenPdf::3                        1                       # What write queue length does an incoming req see
system.mem_ctrl.wrQLenPdf::4                        1                       # What write queue length does an incoming req see
system.mem_ctrl.wrQLenPdf::5                        1                       # What write queue length does an incoming req see
system.mem_ctrl.wrQLenPdf::6                        1                       # What write queue length does an incoming req see
system.mem_ctrl.wrQLenPdf::7                        1                       # What write queue length does an incoming req see
system.mem_ctrl.wrQLenPdf::8                        1                       # What write queue length does an incoming req see
system.mem_ctrl.wrQLenPdf::9                        1                       # What write queue length does an incoming req see
system.mem_ctrl.wrQLenPdf::10                       1                       # What write queue length does an incoming req see
system.mem_ctrl.wrQLenPdf::11                       1                       # What write queue length does an incoming req see
system.mem_ctrl.wrQLenPdf::12                       1                       # What write queue length does an incoming req see
system.mem_ctrl.wrQLenPdf::13                       1                       # What write queue length does an incoming req see
system.mem_ctrl.wrQLenPdf::14                       1                       # What write queue length does an incoming req see
system.mem_ctrl.wrQLenPdf::15                       4                       # What write queue length does an incoming req see
system.mem_ctrl.wrQLenPdf::16                       6                       # What write queue length does an incoming req see
system.mem_ctrl.wrQLenPdf::17                      67                       # What write queue length does an incoming req see
system.mem_ctrl.wrQLenPdf::18                      77                       # What write queue length does an incoming req see
system.mem_ctrl.wrQLenPdf::19                      79                       # What write queue length does an incoming req see
system.mem_ctrl.wrQLenPdf::20                      77                       # What write queue length does an incoming req see
system.mem_ctrl.wrQLenPdf::21                      78                       # What write queue length does an incoming req see
system.mem_ctrl.wrQLenPdf::22                      77                       # What write queue length does an incoming req see
system.mem_ctrl.wrQLenPdf::23                      89                       # What write queue length does an incoming req see
system.mem_ctrl.wrQLenPdf::24                      78                       # What write queue length does an incoming req see
system.mem_ctrl.wrQLenPdf::25                      77                       # What write queue length does an incoming req see
system.mem_ctrl.wrQLenPdf::26                      77                       # What write queue length does an incoming req see
system.mem_ctrl.wrQLenPdf::27                      77                       # What write queue length does an incoming req see
system.mem_ctrl.wrQLenPdf::28                      77                       # What write queue length does an incoming req see
system.mem_ctrl.wrQLenPdf::29                      77                       # What write queue length does an incoming req see
system.mem_ctrl.wrQLenPdf::30                      77                       # What write queue length does an incoming req see
system.mem_ctrl.wrQLenPdf::31                      76                       # What write queue length does an incoming req see
system.mem_ctrl.wrQLenPdf::32                      76                       # What write queue length does an incoming req see
system.mem_ctrl.wrQLenPdf::33                       0                       # What write queue length does an incoming req see
system.mem_ctrl.wrQLenPdf::34                       0                       # What write queue length does an incoming req see
system.mem_ctrl.wrQLenPdf::35                       0                       # What write queue length does an incoming req see
system.mem_ctrl.wrQLenPdf::36                       0                       # What write queue length does an incoming req see
system.mem_ctrl.wrQLenPdf::37                       0                       # What write queue length does an incoming req see
system.mem_ctrl.wrQLenPdf::38                       0                       # What write queue length does an incoming req see
system.mem_ctrl.wrQLenPdf::39                       0                       # What write queue length does an incoming req see
system.mem_ctrl.wrQLenPdf::40                       0                       # What write queue length does an incoming req see
system.mem_ctrl.wrQLenPdf::41                       0                       # What write queue length does an incoming req see
system.mem_ctrl.wrQLenPdf::42                       0                       # What write queue length does an incoming req see
system.mem_ctrl.wrQLenPdf::43                       0                       # What write queue length does an incoming req see
system.mem_ctrl.wrQLenPdf::44                       0                       # What write queue length does an incoming req see
system.mem_ctrl.wrQLenPdf::45                       0                       # What write queue length does an incoming req see
system.mem_ctrl.wrQLenPdf::46                       0                       # What write queue length does an incoming req see
system.mem_ctrl.wrQLenPdf::47                       0                       # What write queue length does an incoming req see
system.mem_ctrl.wrQLenPdf::48                       0                       # What write queue length does an incoming req see
system.mem_ctrl.wrQLenPdf::49                       0                       # What write queue length does an incoming req see
system.mem_ctrl.wrQLenPdf::50                       0                       # What write queue length does an incoming req see
system.mem_ctrl.wrQLenPdf::51                       0                       # What write queue length does an incoming req see
system.mem_ctrl.wrQLenPdf::52                       0                       # What write queue length does an incoming req see
system.mem_ctrl.wrQLenPdf::53                       0                       # What write queue length does an incoming req see
system.mem_ctrl.wrQLenPdf::54                       0                       # What write queue length does an incoming req see
system.mem_ctrl.wrQLenPdf::55                       0                       # What write queue length does an incoming req see
system.mem_ctrl.wrQLenPdf::56                       0                       # What write queue length does an incoming req see
system.mem_ctrl.wrQLenPdf::57                       0                       # What write queue length does an incoming req see
system.mem_ctrl.wrQLenPdf::58                       0                       # What write queue length does an incoming req see
system.mem_ctrl.wrQLenPdf::59                       0                       # What write queue length does an incoming req see
system.mem_ctrl.wrQLenPdf::60                       0                       # What write queue length does an incoming req see
system.mem_ctrl.wrQLenPdf::61                       0                       # What write queue length does an incoming req see
system.mem_ctrl.wrQLenPdf::62                       0                       # What write queue length does an incoming req see
system.mem_ctrl.wrQLenPdf::63                       0                       # What write queue length does an incoming req see
system.mem_ctrl.bytesPerActivate::samples          337                       # Bytes accessed per row activation
system.mem_ctrl.bytesPerActivate::mean     441.732938                       # Bytes accessed per row activation
system.mem_ctrl.bytesPerActivate::gmean    283.505618                       # Bytes accessed per row activation
system.mem_ctrl.bytesPerActivate::stdev    369.236326                       # Bytes accessed per row activation
system.mem_ctrl.bytesPerActivate::0-127            62     18.40%     18.40% # Bytes accessed per row activation
system.mem_ctrl.bytesPerActivate::128-255           90     26.71%     45.10% # Bytes accessed per row activation
system.mem_ctrl.bytesPerActivate::256-383           36     10.68%     55.79% # Bytes accessed per row activation
system.mem_ctrl.bytesPerActivate::384-511           16      4.75%     60.53% # Bytes accessed per row activation
system.mem_ctrl.bytesPerActivate::512-639           25      7.42%     67.95% # Bytes accessed per row activation
system.mem_ctrl.bytesPerActivate::640-767           16      4.75%     72.70% # Bytes accessed per row activation
system.mem_ctrl.bytesPerActivate::768-895           15      4.45%     77.15% # Bytes accessed per row activation
system.mem_ctrl.bytesPerActivate::896-1023           10      2.97%     80.12% # Bytes accessed per row activation
system.mem_ctrl.bytesPerActivate::1024-1151           67     19.88%    100.00% # Bytes accessed per row activation
system.mem_ctrl.bytesPerActivate::total           337                       # Bytes accessed per row activation
system.mem_ctrl.rdPerTurnAround::samples           76                       # Reads before turning the bus around for writes
system.mem_ctrl.rdPerTurnAround::mean       14.328947                       # Reads before turning the bus around for writes
system.mem_ctrl.rdPerTurnAround::gmean      13.735017                       # Reads before turning the bus around for writes
system.mem_ctrl.rdPerTurnAround::stdev       4.634330                       # Reads before turning the bus around for writes
system.mem_ctrl.rdPerTurnAround::4-5                1      1.32%      1.32% # Reads before turning the bus around for writes
system.mem_ctrl.rdPerTurnAround::6-7                3      3.95%      5.26% # Reads before turning the bus around for writes
system.mem_ctrl.rdPerTurnAround::8-9                1      1.32%      6.58% # Reads before turning the bus around for writes
system.mem_ctrl.rdPerTurnAround::10-11              7      9.21%     15.79% # Reads before turning the bus around for writes
system.mem_ctrl.rdPerTurnAround::12-13             12     15.79%     31.58% # Reads before turning the bus around for writes
system.mem_ctrl.rdPerTurnAround::14-15             33     43.42%     75.00% # Reads before turning the bus around for writes
system.mem_ctrl.rdPerTurnAround::16-17             12     15.79%     90.79% # Reads before turning the bus around for writes
system.mem_ctrl.rdPerTurnAround::18-19              4      5.26%     96.05% # Reads before turning the bus around for writes
system.mem_ctrl.rdPerTurnAround::20-21              2      2.63%     98.68% # Reads before turning the bus around for writes
system.mem_ctrl.rdPerTurnAround::44-45              1      1.32%    100.00% # Reads before turning the bus around for writes
system.mem_ctrl.rdPerTurnAround::total             76                       # Reads before turning the bus around for writes
system.mem_ctrl.wrPerTurnAround::samples           76                       # Writes before turning the bus around for reads
system.mem_ctrl.wrPerTurnAround::mean       16.184211                       # Writes before turning the bus around for reads
system.mem_ctrl.wrPerTurnAround::gmean      16.170561                       # Writes before turning the bus around for reads
system.mem_ctrl.wrPerTurnAround::stdev       0.706362                       # Writes before turning the bus around for reads
system.mem_ctrl.wrPerTurnAround::16                70     92.11%     92.11% # Writes before turning the bus around for reads
system.mem_ctrl.wrPerTurnAround::17                 2      2.63%     94.74% # Writes before turning the bus around for reads
system.mem_ctrl.wrPerTurnAround::18                 1      1.32%     96.05% # Writes before turning the bus around for reads
system.mem_ctrl.wrPerTurnAround::19                 2      2.63%     98.68% # Writes before turning the bus around for reads
system.mem_ctrl.wrPerTurnAround::20                 1      1.32%    100.00% # Writes before turning the bus around for reads
system.mem_ctrl.wrPerTurnAround::total             76                       # Writes before turning the bus around for reads
system.mem_ctrl.totQLat                      18498500                       # Total ticks spent queuing
system.mem_ctrl.totMemAccLat                 39198500                       # Total ticks spent from burst creation until serviced by the DRAM
system.mem_ctrl.totBusLat                     5520000                       # Total ticks spent in databus transfers
system.mem_ctrl.avgQLat                      16755.89                       # Average queueing delay per DRAM burst
system.mem_ctrl.avgBusLat                     5000.00                       # Average bus latency per DRAM burst
system.mem_ctrl.avgMemAccLat                 35505.89                       # Average memory access latency per DRAM burst
system.mem_ctrl.avgRdBW                        692.06                       # Average DRAM read bandwidth in MiByte/s
system.mem_ctrl.avgWrBW                        771.05                       # Average achieved write bandwidth in MiByte/s
system.mem_ctrl.avgRdBWSys                    1108.30                       # Average system read bandwidth in MiByte/s
system.mem_ctrl.avgWrBWSys                    1098.27                       # Average system write bandwidth in MiByte/s
system.mem_ctrl.peakBW                       12800.00                       # Theoretical peak bandwidth in MiByte/s
system.mem_ctrl.busUtil                         11.43                       # Data bus utilization in percentage
system.mem_ctrl.busUtilRead                      5.41                       # Data bus utilization in percentage for reads
system.mem_ctrl.busUtilWrite                     6.02                       # Data bus utilization in percentage for writes
system.mem_ctrl.avgRdQLen                        1.00                       # Average read queue length when enqueuing
system.mem_ctrl.avgWrQLen                       25.61                       # Average write queue length when enqueuing
system.mem_ctrl.readRowHits                       880                       # Number of row buffer hits during reads
system.mem_ctrl.writeRowHits                     1112                       # Number of row buffer hits during writes
system.mem_ctrl.readRowHitRate                  79.71                       # Row buffer hit rate for reads
system.mem_ctrl.writeRowHitRate                 88.18                       # Row buffer hit rate for writes
system.mem_ctrl.avgGap                       29000.57                       # Average gap between requests
system.mem_ctrl.pageHitRate                     84.23                       # Row buffer hit rate, read and write combined
system.mem_ctrl_0.actEnergy                   1263780                       # Energy for activate commands per rank (pJ)
system.mem_ctrl_0.preEnergy                    664125                       # Energy for precharge commands per rank (pJ)
system.mem_ctrl_0.readEnergy                  4669560                       # Energy for read commands per rank (pJ)
system.mem_ctrl_0.writeEnergy                 3727080                       # Energy for write commands per rank (pJ)
system.mem_ctrl_0.refreshEnergy          7990320.000000                       # Energy for refresh commands per rank (pJ)
system.mem_ctrl_0.actBackEnergy              16105350                       # Energy for active background per rank (pJ)
system.mem_ctrl_0.preBackEnergy                175680                       # Energy for precharge background per rank (pJ)
system.mem_ctrl_0.actPowerDownEnergy         29612640                       # Energy for active power-down per rank (pJ)
system.mem_ctrl_0.prePowerDownEnergy           529440                       # Energy for precharge power-down per rank (pJ)
system.mem_ctrl_0.selfRefreshEnergy                 0                       # Energy for self refresh per rank (pJ)
system.mem_ctrl_0.totalEnergy                64737975                       # Total energy per rank (pJ)
system.mem_ctrl_0.averagePower             634.095450                       # Core power per rank (mW)
system.mem_ctrl_0.totalIdleTime              66209250                       # Total Idle time Per DRAM Rank
system.mem_ctrl_0.memoryStateTime::IDLE         73000                       # Time in different power states
system.mem_ctrl_0.memoryStateTime::REF        3380000                       # Time in different power states
system.mem_ctrl_0.memoryStateTime::SREF             0                       # Time in different power states
system.mem_ctrl_0.memoryStateTime::PRE_PDN      1376250                       # Time in different power states
system.mem_ctrl_0.memoryStateTime::ACT       32316250                       # Time in different power states
system.mem_ctrl_0.memoryStateTime::ACT_PDN     64949500                       # Time in different power states
system.mem_ctrl_1.actEnergy                   1178100                       # Energy for activate commands per rank (pJ)
system.mem_ctrl_1.preEnergy                    614790                       # Energy for precharge commands per rank (pJ)
system.mem_ctrl_1.readEnergy                  3213000                       # Energy for read commands per rank (pJ)
system.mem_ctrl_1.writeEnergy                 2693520                       # Energy for write commands per rank (pJ)
system.mem_ctrl_1.refreshEnergy          7990320.000000                       # Energy for refresh commands per rank (pJ)
system.mem_ctrl_1.actBackEnergy              14357730                       # Energy for active background per rank (pJ)
system.mem_ctrl_1.preBackEnergy                781920                       # Energy for precharge background per rank (pJ)
system.mem_ctrl_1.actPowerDownEnergy         29799030                       # Energy for active power-down per rank (pJ)
system.mem_ctrl_1.prePowerDownEnergy          1237920                       # Energy for precharge power-down per rank (pJ)
system.mem_ctrl_1.selfRefreshEnergy                 0                       # Energy for self refresh per rank (pJ)
system.mem_ctrl_1.totalEnergy                61866330                       # Total energy per rank (pJ)
system.mem_ctrl_1.averagePower             605.968265                       # Core power per rank (mW)
system.mem_ctrl_1.totalIdleTime              68538000                       # Total Idle time Per DRAM Rank
system.mem_ctrl_1.memoryStateTime::IDLE       1651250                       # Time in different power states
system.mem_ctrl_1.memoryStateTime::REF        3380000                       # Time in different power states
system.mem_ctrl_1.memoryStateTime::SREF             0                       # Time in different power states
system.mem_ctrl_1.memoryStateTime::PRE_PDN      3222750                       # Time in different power states
system.mem_ctrl_1.memoryStateTime::ACT       28483250                       # Time in different power states
system.mem_ctrl_1.memoryStateTime::ACT_PDN     65357750                       # Time in different power states
system.pwrStateResidencyTicks::UNDEFINED    102095000                       # Cumulative time (in ticks) in various power states
system.cache.pwrStateResidencyTicks::UNDEFINED    102095000                       # Cumulative time (in ticks) in various power states
system.cache.hits                               11797                       # Number of hits
system.cache.misses                              1768                       # Number of misses
system.cache.missLatency::samples                1768                       # Ticks for misses to the cache
system.cache.missLatency::mean           50073.529412                       # Ticks for misses to the cache
system.cache.missLatency::gmean          42196.850054                       # Ticks for misses to the cache
system.cache.missLatency::stdev          34275.246943                       # Ticks for misses to the cache
system.cache.missLatency::0-32767                 664     37.56%     37.56% # Ticks for misses to the cache
system.cache.missLatency::32768-65535             842     47.62%     85.18% # Ticks for misses to the cache
system.cache.missLatency::65536-98303             182     10.29%     95.48% # Ticks for misses to the cache
system.cache.missLatency::98304-131071             19      1.07%     96.55% # Ticks for misses to the cache
system.cache.missLatency::131072-163839            44      2.49%     99.04% # Ticks for misses to the cache
system.cache.missLatency::163840-196607             5      0.28%     99.32% # Ticks for misses to the cache
system.cache.missLatency::196608-229375             0      0.00%     99.32% # Ticks for misses to the cache
system.cache.missLatency::229376-262143             0      0.00%     99.32% # Ticks for misses to the cache
system.cache.missLatency::262144-294911             3      0.17%     99.49% # Ticks for misses to the cache
system.cache.missLatency::294912-327679             7      0.40%     99.89% # Ticks for misses to the cache
system.cache.missLatency::327680-360447             2      0.11%    100.00% # Ticks for misses to the cache
system.cache.missLatency::360448-393215             0      0.00%    100.00% # Ticks for misses to the cache
system.cache.missLatency::393216-425983             0      0.00%    100.00% # Ticks for misses to the cache
system.cache.missLatency::425984-458751             0      0.00%    100.00% # Ticks for misses to the cache
system.cache.missLatency::458752-491519             0      0.00%    100.00% # Ticks for misses to the cache
system.cache.missLatency::491520-524287             0      0.00%    100.00% # Ticks for misses to the cache
system.cache.missLatency::total                  1768                       # Ticks for misses to the cache
system.cache.hitRatio                        0.869665                       # The ratio of hits to the total accesses to the cache
system.cpu.dtb.fetch_hits                           0                       # ITB hits
system.cpu.dtb.fetch_misses                         0                       # ITB misses
system.cpu.dtb.fetch_acv                            0                       # ITB acv
system.cpu.dtb.fetch_accesses                       0                       # ITB accesses
system.cpu.dtb.read_hits                         1982                       # DTB read hits
system.cpu.dtb.read_misses                         12                       # DTB read misses
system.cpu.dtb.read_acv                             0                       # DTB read access violations
system.cpu.dtb.read_accesses                     1994                       # DTB read accesses
system.cpu.dtb.write_hits                        1240                       # DTB write hits
system.cpu.dtb.write_misses                         2                       # DTB write misses
system.cpu.dtb.write_acv                            0                       # DTB write access violations
system.cpu.dtb.write_accesses                    1242                       # DTB write accesses
system.cpu.dtb.data_hits                         3222                       # DTB hits
system.cpu.dtb.data_misses                         14                       # DTB misses
system.cpu.dtb.data_acv                             0                       # DTB access violations
system.cpu.dtb.data_accesses                     3236                       # DTB accesses
system.cpu.itb.fetch_hits                       10344                       # ITB hits
system.cpu.itb.fetch_misses                        24                       # ITB misses
system.cpu.itb.fetch_acv                            0                       # ITB acv
system.cpu.itb.fetch_accesses                   10368                       # ITB accesses
system.cpu.itb.read_hits                            0                       # DTB read hits
system.cpu.itb.read_misses                          0                       # DTB read misses
system.cpu.itb.read_acv                             0                       # DTB read access violations
system.cpu.itb.read_accesses                        0                       # DTB read accesses
system.cpu.itb.write_hits                           0                       # DTB write hits
system.cpu.itb.write_misses                         0                       # DTB write misses
system.cpu.itb.write_acv                            0                       # DTB write access violations
system.cpu.itb.write_accesses                       0                       # DTB write accesses
system.cpu.itb.data_hits                            0                       # DTB hits
system.cpu.itb.data_misses                          0                       # DTB misses
system.cpu.itb.data_acv                             0                       # DTB access violations
system.cpu.itb.data_accesses                        0                       # DTB accesses
system.cpu.workload.numSyscalls                    10                       # Number of system calls
system.cpu.pwrStateResidencyTicks::ON       102095000                       # Cumulative time (in ticks) in various power states
system.cpu.numCycles                           102095                       # number of cpu cycles simulated
system.cpu.numWorkItemsStarted                      0                       # number of work items this cpu started
system.cpu.numWorkItemsCompleted                    0                       # number of work items this cpu completed
system.cpu.committedInsts                       10329                       # Number of instructions committed
system.cpu.committedOps                         10329                       # Number of ops (including micro ops) committed
system.cpu.num_int_alu_accesses                 10181                       # Number of integer alu accesses
system.cpu.num_fp_alu_accesses                     16                       # Number of float alu accesses
system.cpu.num_vec_alu_accesses                     0                       # Number of vector alu accesses
system.cpu.num_func_calls                         357                       # number of times a function call or return occured
system.cpu.num_conditional_control_insts         1146                       # number of instructions that are conditional controls
system.cpu.num_int_insts                        10181                       # number of integer instructions
system.cpu.num_fp_insts                            16                       # number of float instructions
system.cpu.num_vec_insts                            0                       # number of vector instructions
system.cpu.num_int_register_reads               13900                       # number of times the integer registers were read
system.cpu.num_int_register_writes               7590                       # number of times the integer registers were written
system.cpu.num_fp_register_reads                   14                       # number of times the floating registers were read
system.cpu.num_fp_register_writes                   2                       # number of times the floating registers were written
system.cpu.num_vec_register_reads                   0                       # number of times the vector registers were read
system.cpu.num_vec_register_writes                  0                       # number of times the vector registers were written
system.cpu.num_mem_refs                          3236                       # number of memory refs
system.cpu.num_load_insts                        1994                       # Number of load instructions
system.cpu.num_store_insts                       1242                       # Number of store instructions
system.cpu.num_idle_cycles                          0                       # Number of idle cycles
system.cpu.num_busy_cycles                     102095                       # Number of busy cycles
system.cpu.not_idle_fraction                        1                       # Percentage of non-idle cycles
system.cpu.idle_fraction                            0                       # Percentage of idle cycles
system.cpu.Branches                              1604                       # Number of branches fetched
system.cpu.op_class::No_OpClass                    67      0.65%      0.65% # Class of executed instruction
system.cpu.op_class::IntAlu                      6997     67.65%     68.30% # Class of executed instruction
system.cpu.op_class::IntMult                       41      0.40%     68.69% # Class of executed instruction
system.cpu.op_class::IntDiv                         0      0.00%     68.69% # Class of executed instruction
system.cpu.op_class::FloatAdd                       2      0.02%     68.71% # Class of executed instruction
system.cpu.op_class::FloatCmp                       0      0.00%     68.71% # Class of executed instruction
system.cpu.op_class::FloatCvt                       0      0.00%     68.71% # Class of executed instruction
system.cpu.op_class::FloatMult                      0      0.00%     68.71% # Class of executed instruction
system.cpu.op_class::FloatMultAcc                   0      0.00%     68.71% # Class of executed instruction
system.cpu.op_class::FloatDiv                       0      0.00%     68.71% # Class of executed instruction
system.cpu.op_class::FloatMisc                      0      0.00%     68.71% # Class of executed instruction
system.cpu.op_class::FloatSqrt                      0      0.00%     68.71% # Class of executed instruction
system.cpu.op_class::SimdAdd                        0      0.00%     68.71% # Class of executed instruction
system.cpu.op_class::SimdAddAcc                     0      0.00%     68.71% # Class of executed instruction
system.cpu.op_class::SimdAlu                        0      0.00%     68.71% # Class of executed instruction
system.cpu.op_class::SimdCmp                        0      0.00%     68.71% # Class of executed instruction
system.cpu.op_class::SimdCvt                        0      0.00%     68.71% # Class of executed instruction
system.cpu.op_class::SimdMisc                       0      0.00%     68.71% # Class of executed instruction
system.cpu.op_class::SimdMult                       0      0.00%     68.71% # Class of executed instruction
system.cpu.op_class::SimdMultAcc                    0      0.00%     68.71% # Class of executed instruction
system.cpu.op_class::SimdShift                      0      0.00%     68.71% # Class of executed instruction
system.cpu.op_class::SimdShiftAcc                   0      0.00%     68.71% # Class of executed instruction
system.cpu.op_class::SimdSqrt                       0      0.00%     68.71% # Class of executed instruction
system.cpu.op_class::SimdFloatAdd                   0      0.00%     68.71% # Class of executed instruction
system.cpu.op_class::SimdFloatAlu                   0      0.00%     68.71% # Class of executed instruction
system.cpu.op_class::SimdFloatCmp                   0      0.00%     68.71% # Class of executed instruction
system.cpu.op_class::SimdFloatCvt                   0      0.00%     68.71% # Class of executed instruction
system.cpu.op_class::SimdFloatDiv                   0      0.00%     68.71% # Class of executed instruction
system.cpu.op_class::SimdFloatMisc                  0      0.00%     68.71% # Class of executed instruction
system.cpu.op_class::SimdFloatMult                  0      0.00%     68.71% # Class of executed instruction
system.cpu.op_class::SimdFloatMultAcc               0      0.00%     68.71% # Class of executed instruction
system.cpu.op_class::SimdFloatSqrt                  0      0.00%     68.71% # Class of executed instruction
system.cpu.op_class::MemRead                     1993     19.27%     87.98% # Class of executed instruction
system.cpu.op_class::MemWrite                    1229     11.88%     99.86% # Class of executed instruction
system.cpu.op_class::FloatMemRead                   1      0.01%     99.87% # Class of executed instruction
system.cpu.op_class::FloatMemWrite                 13      0.13%    100.00% # Class of executed instruction
system.cpu.op_class::IprAccess                      0      0.00%    100.00% # Class of executed instruction
system.cpu.op_class::InstPrefetch                   0      0.00%    100.00% # Class of executed instruction
system.cpu.op_class::total                      10343                       # Class of executed instruction
system.membus.snoop_filter.tot_requests             0                       # Total number of requests made to the snoop filter.
system.membus.snoop_filter.hit_single_requests            0                       # Number of requests hitting in the snoop filter with a single holder of the requested data.
system.membus.snoop_filter.hit_multi_requests            0                       # Number of requests hitting in the snoop filter with multiple (>1) holders of the requested data.
system.membus.snoop_filter.tot_snoops               0                       # Total number of snoops made to the snoop filter.
system.membus.snoop_filter.hit_single_snoops            0                       # Number of snoops hitting in the snoop filter with a single holder of the requested data.
system.membus.snoop_filter.hit_multi_snoops            0                       # Number of snoops hitting in the snoop filter with multiple (>1) holders of the requested data.
system.membus.pwrStateResidencyTicks::UNDEFINED    102095000                       # Cumulative time (in ticks) in various power states
system.membus.trans_dist::ReadReq                1768                       # Transaction distribution
system.membus.trans_dist::ReadResp               1768                       # Transaction distribution
system.membus.trans_dist::WritebackDirty         1752                       # Transaction distribution
system.membus.pkt_count_system.cache.mem_side::system.mem_ctrl.port         5288                       # Packet count per connected master and slave (bytes)
system.membus.pkt_count::total                   5288                       # Packet count per connected master and slave (bytes)
system.membus.pkt_size_system.cache.mem_side::system.mem_ctrl.port       225280                       # Cumulative packet size per connected master and slave (bytes)
system.membus.pkt_size::total                  225280                       # Cumulative packet size per connected master and slave (bytes)
system.membus.snoops                                0                       # Total snoops (count)
system.membus.snoopTraffic                          0                       # Total snoop traffic (bytes)
system.membus.snoop_fanout::samples              1768                       # Request fanout histogram
system.membus.snoop_fanout::mean                    0                       # Request fanout histogram
system.membus.snoop_fanout::stdev                   0                       # Request fanout histogram
system.membus.snoop_fanout::underflows              0      0.00%      0.00% # Request fanout histogram
system.membus.snoop_fanout::0                    1768    100.00%    100.00% # Request fanout histogram
system.membus.snoop_fanout::overflows               0      0.00%    100.00% # Request fanout histogram
system.membus.snoop_fanout::min_value               0                       # Request fanout histogram
system.membus.snoop_fanout::max_value               0                       # Request fanout histogram
system.membus.snoop_fanout::total                1768                       # Request fanout histogram
system.membus.reqLayer0.occupancy            10528000                       # Layer occupancy (ticks)
system.membus.reqLayer0.utilization              10.3                       # Layer utilization (%)
system.membus.respLayer0.occupancy            9189500                       # Layer occupancy (ticks)
system.membus.respLayer0.utilization              9.0                       # Layer utilization (%)

---------- End Simulation Statistics   ----------
