
---------- Begin Simulation Statistics ----------
sim_seconds                                  0.000235                       # Number of seconds simulated
sim_ticks                                   234644000                       # Number of ticks simulated
final_tick                                  234644000                       # Number of ticks from beginning of simulation (restored from checkpoints and never reset)
sim_freq                                 1000000000000                       # Frequency of simulated ticks
host_inst_rate                                 361622                       # Simulator instruction rate (inst/s)
host_op_rate                                   361293                       # Simulator op (including micro ops) rate (op/s)
host_tick_rate                             8201181364                       # Simulator tick rate (ticks/s)
host_mem_usage                                8485368                       # Number of bytes of host memory used
host_seconds                                     0.03                       # Real time elapsed on the host
sim_insts                                       10329                       # Number of instructions simulated
sim_ops                                         10329                       # Number of ops (including micro ops) simulated
system.clk_domain.voltage_domain.voltage            1                       # Voltage in Volts
system.clk_domain.clock                          1000                       # Clock period in ticks
system.mem_ctrl.pwrStateResidencyTicks::UNDEFINED    234644000                       # Cumulative time (in ticks) in various power states
system.mem_ctrl.bytes_read::cpu.inst           262784                       # Number of bytes read from this memory
system.mem_ctrl.bytes_read::cpu.data           191936                       # Number of bytes read from this memory
system.mem_ctrl.bytes_read::total              454720                       # Number of bytes read from this memory
system.mem_ctrl.bytes_inst_read::cpu.inst       262784                       # Number of instructions bytes read from this memory
system.mem_ctrl.bytes_inst_read::total         262784                       # Number of instructions bytes read from this memory
system.mem_ctrl.bytes_written::writebacks       453696                       # Number of bytes written to this memory
system.mem_ctrl.bytes_written::total           453696                       # Number of bytes written to this memory
system.mem_ctrl.num_reads::cpu.inst              4106                       # Number of read requests responded to by this memory
system.mem_ctrl.num_reads::cpu.data              2999                       # Number of read requests responded to by this memory
system.mem_ctrl.num_reads::total                 7105                       # Number of read requests responded to by this memory
system.mem_ctrl.num_writes::writebacks           7089                       # Number of write requests responded to by this memory
system.mem_ctrl.num_writes::total                7089                       # Number of write requests responded to by this memory
system.mem_ctrl.bw_read::cpu.inst          1119926357                       # Total read bandwidth from this memory (bytes/s)
system.mem_ctrl.bw_read::cpu.data           817988101                       # Total read bandwidth from this memory (bytes/s)
system.mem_ctrl.bw_read::total             1937914458                       # Total read bandwidth from this memory (bytes/s)
system.mem_ctrl.bw_inst_read::cpu.inst     1119926357                       # Instruction read bandwidth from this memory (bytes/s)
system.mem_ctrl.bw_inst_read::total        1119926357                       # Instruction read bandwidth from this memory (bytes/s)
system.mem_ctrl.bw_write::writebacks       1933550400                       # Write bandwidth from this memory (bytes/s)
system.mem_ctrl.bw_write::total            1933550400                       # Write bandwidth from this memory (bytes/s)
system.mem_ctrl.bw_total::writebacks       1933550400                       # Total bandwidth to/from this memory (bytes/s)
system.mem_ctrl.bw_total::cpu.inst         1119926357                       # Total bandwidth to/from this memory (bytes/s)
system.mem_ctrl.bw_total::cpu.data          817988101                       # Total bandwidth to/from this memory (bytes/s)
system.mem_ctrl.bw_total::total            3871464857                       # Total bandwidth to/from this memory (bytes/s)
system.mem_ctrl.readReqs                         7105                       # Number of read requests accepted
system.mem_ctrl.writeReqs                        7089                       # Number of write requests accepted
system.mem_ctrl.readBursts                       7105                       # Number of DRAM read bursts, including those serviced by the write queue
system.mem_ctrl.writeBursts                      7089                       # Number of DRAM write bursts, including those merged in the write queue
system.mem_ctrl.bytesReadDRAM                   77376                       # Total number of bytes read from DRAM
system.mem_ctrl.bytesReadWrQ                   377344                       # Total number of bytes read from write queue
system.mem_ctrl.bytesWritten                    77824                       # Total number of bytes written to DRAM
system.mem_ctrl.bytesReadSys                   454720                       # Total read bytes from the system interface side
system.mem_ctrl.bytesWrittenSys                453696                       # Total written bytes from the system interface side
system.mem_ctrl.servicedByWrQ                    5896                       # Number of DRAM read bursts serviced by the write queue
system.mem_ctrl.mergedWrBursts                   5849                       # Number of DRAM write bursts merged with an existing one
system.mem_ctrl.neitherReadNorWriteReqs             0                       # Number of requests that are neither read nor write
system.mem_ctrl.perBankRdBursts::0                 79                       # Per bank write bursts
system.mem_ctrl.perBankRdBursts::1                  0                       # Per bank write bursts
system.mem_ctrl.perBankRdBursts::2                164                       # Per bank write bursts
system.mem_ctrl.perBankRdBursts::3                148                       # Per bank write bursts
system.mem_ctrl.perBankRdBursts::4                 94                       # Per bank write bursts
system.mem_ctrl.perBankRdBursts::5                 38                       # Per bank write bursts
system.mem_ctrl.perBankRdBursts::6                 72                       # Per bank write bursts
system.mem_ctrl.perBankRdBursts::7                 98                       # Per bank write bursts
system.mem_ctrl.perBankRdBursts::8                 43                       # Per bank write bursts
system.mem_ctrl.perBankRdBursts::9                175                       # Per bank write bursts
system.mem_ctrl.perBankRdBursts::10               109                       # Per bank write bursts
system.mem_ctrl.perBankRdBursts::11                35                       # Per bank write bursts
system.mem_ctrl.perBankRdBursts::12                14                       # Per bank write bursts
system.mem_ctrl.perBankRdBursts::13                15                       # Per bank write bursts
system.mem_ctrl.perBankRdBursts::14                61                       # Per bank write bursts
system.mem_ctrl.perBankRdBursts::15                64                       # Per bank write bursts
system.mem_ctrl.perBankWrBursts::0                 82                       # Per bank write bursts
system.mem_ctrl.perBankWrBursts::1                  0                       # Per bank write bursts
system.mem_ctrl.perBankWrBursts::2                160                       # Per bank write bursts
system.mem_ctrl.perBankWrBursts::3                147                       # Per bank write bursts
system.mem_ctrl.perBankWrBursts::4                 91                       # Per bank write bursts
system.mem_ctrl.perBankWrBursts::5                 41                       # Per bank write bursts
system.mem_ctrl.perBankWrBursts::6                 74                       # Per bank write bursts
system.mem_ctrl.perBankWrBursts::7                102                       # Per bank write bursts
system.mem_ctrl.perBankWrBursts::8                 38                       # Per bank write bursts
system.mem_ctrl.perBankWrBursts::9                189                       # Per bank write bursts
system.mem_ctrl.perBankWrBursts::10               112                       # Per bank write bursts
system.mem_ctrl.perBankWrBursts::11                34                       # Per bank write bursts
system.mem_ctrl.perBankWrBursts::12                13                       # Per bank write bursts
system.mem_ctrl.perBankWrBursts::13                14                       # Per bank write bursts
system.mem_ctrl.perBankWrBursts::14                62                       # Per bank write bursts
system.mem_ctrl.perBankWrBursts::15                57                       # Per bank write bursts
system.mem_ctrl.numRdRetry                          0                       # Number of times read queue was full causing retry
system.mem_ctrl.numWrRetry                          0                       # Number of times write queue was full causing retry
system.mem_ctrl.totGap                      234640000                       # Total gap between requests
system.mem_ctrl.readPktSize::0                      0                       # Read request sizes (log2)
system.mem_ctrl.readPktSize::1                      0                       # Read request sizes (log2)
system.mem_ctrl.readPktSize::2                      0                       # Read request sizes (log2)
system.mem_ctrl.readPktSize::3                      0                       # Read request sizes (log2)
system.mem_ctrl.readPktSize::4                      0                       # Read request sizes (log2)
system.mem_ctrl.readPktSize::5                      0                       # Read request sizes (log2)
system.mem_ctrl.readPktSize::6                   7105                       # Read request sizes (log2)
system.mem_ctrl.writePktSize::0                     0                       # Write request sizes (log2)
system.mem_ctrl.writePktSize::1                     0                       # Write request sizes (log2)
system.mem_ctrl.writePktSize::2                     0                       # Write request sizes (log2)
system.mem_ctrl.writePktSize::3                     0                       # Write request sizes (log2)
system.mem_ctrl.writePktSize::4                     0                       # Write request sizes (log2)
system.mem_ctrl.writePktSize::5                     0                       # Write request sizes (log2)
system.mem_ctrl.writePktSize::6                  7089                       # Write request sizes (log2)
system.mem_ctrl.rdQLenPdf::0                     1209                       # What read queue length does an incoming req see
system.mem_ctrl.rdQLenPdf::1                        0                       # What read queue length does an incoming req see
system.mem_ctrl.rdQLenPdf::2                        0                       # What read queue length does an incoming req see
system.mem_ctrl.rdQLenPdf::3                        0                       # What read queue length does an incoming req see
system.mem_ctrl.rdQLenPdf::4                        0                       # What read queue length does an incoming req see
system.mem_ctrl.rdQLenPdf::5                        0                       # What read queue length does an incoming req see
system.mem_ctrl.rdQLenPdf::6                        0                       # What read queue length does an incoming req see
system.mem_ctrl.rdQLenPdf::7                        0                       # What read queue length does an incoming req see
system.mem_ctrl.rdQLenPdf::8                        0                       # What read queue length does an incoming req see
system.mem_ctrl.rdQLenPdf::9                        0                       # What read queue length does an incoming req see
system.mem_ctrl.rdQLenPdf::10                       0                       # What read queue length does an incoming req see
system.mem_ctrl.rdQLenPdf::11                       0                       # What read queue length does an incoming req see
system.mem_ctrl.rdQLenPdf::12                       0                       # What read queue length does an incoming req see
system.mem_ctrl.rdQLenPdf::13                       0                       # What read queue length does an incoming req see
system.mem_ctrl.rdQLenPdf::14                       0                       # What read queue length does an incoming req see
system.mem_ctrl.rdQLenPdf::15                       0                       # What read queue length does an incoming req see
system.mem_ctrl.rdQLenPdf::16                       0                       # What read queue length does an incoming req see
system.mem_ctrl.rdQLenPdf::17                       0                       # What read queue length does an incoming req see
system.mem_ctrl.rdQLenPdf::18                       0                       # What read queue length does an incoming req see
system.mem_ctrl.rdQLenPdf::19                       0                       # What read queue length does an incoming req see
system.mem_ctrl.rdQLenPdf::20                       0                       # What read queue length does an incoming req see
system.mem_ctrl.rdQLenPdf::21                       0                       # What read queue length does an incoming req see
system.mem_ctrl.rdQLenPdf::22                       0                       # What read queue length does an incoming req see
system.mem_ctrl.rdQLenPdf::23                       0                       # What read queue length does an incoming req see
system.mem_ctrl.rdQLenPdf::24                       0                       # What read queue length does an incoming req see
system.mem_ctrl.rdQLenPdf::25                       0                       # What read queue length does an incoming req see
system.mem_ctrl.rdQLenPdf::26                       0                       # What read queue length does an incoming req see
system.mem_ctrl.rdQLenPdf::27                       0                       # What read queue length does an incoming req see
system.mem_ctrl.rdQLenPdf::28                       0                       # What read queue length does an incoming req see
system.mem_ctrl.rdQLenPdf::29                       0                       # What read queue length does an incoming req see
system.mem_ctrl.rdQLenPdf::30                       0                       # What read queue length does an incoming req see
system.mem_ctrl.rdQLenPdf::31                       0                       # What read queue length does an incoming req see
system.mem_ctrl.wrQLenPdf::0                        1                       # What write queue length does an incoming req see
system.mem_ctrl.wrQLenPdf::1                        1                       # What write queue length does an incoming req see
system.mem_ctrl.wrQLenPdf::2                        1                       # What write queue length does an incoming req see
system.mem_ctrl.wrQLenPdf::3                        1                       # What write queue length does an incoming req see
system.mem_ctrl.wrQLenPdf::4                        1                       # What write queue length does an incoming req see
system.mem_ctrl.wrQLenPdf::5                        1                       # What write queue length does an incoming req see
system.mem_ctrl.wrQLenPdf::6                        1                       # What write queue length does an incoming req see
system.mem_ctrl.wrQLenPdf::7                        1                       # What write queue length does an incoming req see
system.mem_ctrl.wrQLenPdf::8                        1                       # What write queue length does an incoming req see
system.mem_ctrl.wrQLenPdf::9                        1                       # What write queue length does an incoming req see
system.mem_ctrl.wrQLenPdf::10                       1                       # What write queue length does an incoming req see
system.mem_ctrl.wrQLenPdf::11                       1                       # What write queue length does an incoming req see
system.mem_ctrl.wrQLenPdf::12                       1                       # What write queue length does an incoming req see
system.mem_ctrl.wrQLenPdf::13                       1                       # What write queue length does an incoming req see
system.mem_ctrl.wrQLenPdf::14                       1                       # What write queue length does an incoming req see
system.mem_ctrl.wrQLenPdf::15                      24                       # What write queue length does an incoming req see
system.mem_ctrl.wrQLenPdf::16                      27                       # What write queue length does an incoming req see
system.mem_ctrl.wrQLenPdf::17                      63                       # What write queue length does an incoming req see
system.mem_ctrl.wrQLenPdf::18                      77                       # What write queue length does an incoming req see
system.mem_ctrl.wrQLenPdf::19                      77                       # What write queue length does an incoming req see
system.mem_ctrl.wrQLenPdf::20                      73                       # What write queue length does an incoming req see
system.mem_ctrl.wrQLenPdf::21                      73                       # What write queue length does an incoming req see
system.mem_ctrl.wrQLenPdf::22                      74                       # What write queue length does an incoming req see
system.mem_ctrl.wrQLenPdf::23                      86                       # What write queue length does an incoming req see
system.mem_ctrl.wrQLenPdf::24                      74                       # What write queue length does an incoming req see
system.mem_ctrl.wrQLenPdf::25                      72                       # What write queue length does an incoming req see
system.mem_ctrl.wrQLenPdf::26                      73                       # What write queue length does an incoming req see
system.mem_ctrl.wrQLenPdf::27                      72                       # What write queue length does an incoming req see
system.mem_ctrl.wrQLenPdf::28                      72                       # What write queue length does an incoming req see
system.mem_ctrl.wrQLenPdf::29                      72                       # What write queue length does an incoming req see
system.mem_ctrl.wrQLenPdf::30                      72                       # What write queue length does an incoming req see
system.mem_ctrl.wrQLenPdf::31                      72                       # What write queue length does an incoming req see
system.mem_ctrl.wrQLenPdf::32                      72                       # What write queue length does an incoming req see
system.mem_ctrl.wrQLenPdf::33                       0                       # What write queue length does an incoming req see
system.mem_ctrl.wrQLenPdf::34                       0                       # What write queue length does an incoming req see
system.mem_ctrl.wrQLenPdf::35                       0                       # What write queue length does an incoming req see
system.mem_ctrl.wrQLenPdf::36                       0                       # What write queue length does an incoming req see
system.mem_ctrl.wrQLenPdf::37                       0                       # What write queue length does an incoming req see
system.mem_ctrl.wrQLenPdf::38                       0                       # What write queue length does an incoming req see
system.mem_ctrl.wrQLenPdf::39                       0                       # What write queue length does an incoming req see
system.mem_ctrl.wrQLenPdf::40                       0                       # What write queue length does an incoming req see
system.mem_ctrl.wrQLenPdf::41                       0                       # What write queue length does an incoming req see
system.mem_ctrl.wrQLenPdf::42                       0                       # What write queue length does an incoming req see
system.mem_ctrl.wrQLenPdf::43                       0                       # What write queue length does an incoming req see
system.mem_ctrl.wrQLenPdf::44                       0                       # What write queue length does an incoming req see
system.mem_ctrl.wrQLenPdf::45                       0                       # What write queue length does an incoming req see
system.mem_ctrl.wrQLenPdf::46                       0                       # What write queue length does an incoming req see
system.mem_ctrl.wrQLenPdf::47                       0                       # What write queue length does an incoming req see
system.mem_ctrl.wrQLenPdf::48                       0                       # What write queue length does an incoming req see
system.mem_ctrl.wrQLenPdf::49                       0                       # What write queue length does an incoming req see
system.mem_ctrl.wrQLenPdf::50                       0                       # What write queue length does an incoming req see
system.mem_ctrl.wrQLenPdf::51                       0                       # What write queue length does an incoming req see
system.mem_ctrl.wrQLenPdf::52                       0                       # What write queue length does an incoming req see
system.mem_ctrl.wrQLenPdf::53                       0                       # What write queue length does an incoming req see
system.mem_ctrl.wrQLenPdf::54                       0                       # What write queue length does an incoming req see
system.mem_ctrl.wrQLenPdf::55                       0                       # What write queue length does an incoming req see
system.mem_ctrl.wrQLenPdf::56                       0                       # What write queue length does an incoming req see
system.mem_ctrl.wrQLenPdf::57                       0                       # What write queue length does an incoming req see
system.mem_ctrl.wrQLenPdf::58                       0                       # What write queue length does an incoming req see
system.mem_ctrl.wrQLenPdf::59                       0                       # What write queue length does an incoming req see
system.mem_ctrl.wrQLenPdf::60                       0                       # What write queue length does an incoming req see
system.mem_ctrl.wrQLenPdf::61                       0                       # What write queue length does an incoming req see
system.mem_ctrl.wrQLenPdf::62                       0                       # What write queue length does an incoming req see
system.mem_ctrl.wrQLenPdf::63                       0                       # What write queue length does an incoming req see
system.mem_ctrl.bytesPerActivate::samples          382                       # Bytes accessed per row activation
system.mem_ctrl.bytesPerActivate::mean     399.581152                       # Bytes accessed per row activation
system.mem_ctrl.bytesPerActivate::gmean    264.468751                       # Bytes accessed per row activation
system.mem_ctrl.bytesPerActivate::stdev    333.898428                       # Bytes accessed per row activation
system.mem_ctrl.bytesPerActivate::0-127            74     19.37%     19.37% # Bytes accessed per row activation
system.mem_ctrl.bytesPerActivate::128-255           91     23.82%     43.19% # Bytes accessed per row activation
system.mem_ctrl.bytesPerActivate::256-383           52     13.61%     56.81% # Bytes accessed per row activation
system.mem_ctrl.bytesPerActivate::384-511           36      9.42%     66.23% # Bytes accessed per row activation
system.mem_ctrl.bytesPerActivate::512-639           28      7.33%     73.56% # Bytes accessed per row activation
system.mem_ctrl.bytesPerActivate::640-767           24      6.28%     79.84% # Bytes accessed per row activation
system.mem_ctrl.bytesPerActivate::768-895           14      3.66%     83.51% # Bytes accessed per row activation
system.mem_ctrl.bytesPerActivate::896-1023           13      3.40%     86.91% # Bytes accessed per row activation
system.mem_ctrl.bytesPerActivate::1024-1151           50     13.09%    100.00% # Bytes accessed per row activation
system.mem_ctrl.bytesPerActivate::total           382                       # Bytes accessed per row activation
system.mem_ctrl.rdPerTurnAround::samples           72                       # Reads before turning the bus around for writes
system.mem_ctrl.rdPerTurnAround::mean       16.694444                       # Reads before turning the bus around for writes
system.mem_ctrl.rdPerTurnAround::gmean      16.444148                       # Reads before turning the bus around for writes
system.mem_ctrl.rdPerTurnAround::stdev       4.054693                       # Reads before turning the bus around for writes
system.mem_ctrl.rdPerTurnAround::14-15             23     31.94%     31.94% # Reads before turning the bus around for writes
system.mem_ctrl.rdPerTurnAround::16-17             33     45.83%     77.78% # Reads before turning the bus around for writes
system.mem_ctrl.rdPerTurnAround::18-19             15     20.83%     98.61% # Reads before turning the bus around for writes
system.mem_ctrl.rdPerTurnAround::48-49              1      1.39%    100.00% # Reads before turning the bus around for writes
system.mem_ctrl.rdPerTurnAround::total             72                       # Reads before turning the bus around for writes
system.mem_ctrl.wrPerTurnAround::samples           72                       # Writes before turning the bus around for reads
system.mem_ctrl.wrPerTurnAround::mean       16.888889                       # Writes before turning the bus around for reads
system.mem_ctrl.wrPerTurnAround::gmean      16.851019                       # Writes before turning the bus around for reads
system.mem_ctrl.wrPerTurnAround::stdev       1.157408                       # Writes before turning the bus around for reads
system.mem_ctrl.wrPerTurnAround::16                42     58.33%     58.33% # Writes before turning the bus around for reads
system.mem_ctrl.wrPerTurnAround::17                 6      8.33%     66.67% # Writes before turning the bus around for reads
system.mem_ctrl.wrPerTurnAround::18                14     19.44%     86.11% # Writes before turning the bus around for reads
system.mem_ctrl.wrPerTurnAround::19                10     13.89%    100.00% # Writes before turning the bus around for reads
system.mem_ctrl.wrPerTurnAround::total             72                       # Writes before turning the bus around for reads
system.mem_ctrl.totQLat                      20550500                       # Total ticks spent queuing
system.mem_ctrl.totMemAccLat                 43219250                       # Total ticks spent from burst creation until serviced by the DRAM
system.mem_ctrl.totBusLat                     6045000                       # Total ticks spent in databus transfers
system.mem_ctrl.avgQLat                      16997.93                       # Average queueing delay per DRAM burst
system.mem_ctrl.avgBusLat                     5000.00                       # Average bus latency per DRAM burst
system.mem_ctrl.avgMemAccLat                 35747.93                       # Average memory access latency per DRAM burst
system.mem_ctrl.avgRdBW                        329.76                       # Average DRAM read bandwidth in MiByte/s
system.mem_ctrl.avgWrBW                        331.67                       # Average achieved write bandwidth in MiByte/s
system.mem_ctrl.avgRdBWSys                    1937.91                       # Average system read bandwidth in MiByte/s
system.mem_ctrl.avgWrBWSys                    1933.55                       # Average system write bandwidth in MiByte/s
system.mem_ctrl.peakBW                       12800.00                       # Theoretical peak bandwidth in MiByte/s
system.mem_ctrl.busUtil                          5.17                       # Data bus utilization in percentage
system.mem_ctrl.busUtilRead                      2.58                       # Data bus utilization in percentage for reads
system.mem_ctrl.busUtilWrite                     2.59                       # Data bus utilization in percentage for writes
system.mem_ctrl.avgRdQLen                        1.00                       # Average read queue length when enqueuing
system.mem_ctrl.avgWrQLen                       25.32                       # Average write queue length when enqueuing
system.mem_ctrl.readRowHits                       918                       # Number of row buffer hits during reads
system.mem_ctrl.writeRowHits                     1115                       # Number of row buffer hits during writes
system.mem_ctrl.readRowHitRate                  75.93                       # Row buffer hit rate for reads
system.mem_ctrl.writeRowHitRate                 89.92                       # Row buffer hit rate for writes
system.mem_ctrl.avgGap                       16530.93                       # Average gap between requests
system.mem_ctrl.pageHitRate                     83.01                       # Row buffer hit rate, read and write combined
system.mem_ctrl_0.actEnergy                   1499400                       # Energy for activate commands per rank (pJ)
system.mem_ctrl_0.preEnergy                    777975                       # Energy for precharge commands per rank (pJ)
system.mem_ctrl_0.readEnergy                  4948020                       # Energy for read commands per rank (pJ)
system.mem_ctrl_0.writeEnergy                 3638340                       # Energy for write commands per rank (pJ)
system.mem_ctrl_0.refreshEnergy          18439200.000000                       # Energy for refresh commands per rank (pJ)
system.mem_ctrl_0.actBackEnergy              20772510                       # Energy for active background per rank (pJ)
system.mem_ctrl_0.preBackEnergy                479040                       # Energy for precharge background per rank (pJ)
system.mem_ctrl_0.actPowerDownEnergy         75307830                       # Energy for active power-down per rank (pJ)
system.mem_ctrl_0.prePowerDownEnergy          7491360                       # Energy for precharge power-down per rank (pJ)
system.mem_ctrl_0.selfRefreshEnergy           1316940                       # Energy for self refresh per rank (pJ)
system.mem_ctrl_0.totalEnergy               134670615                       # Total energy per rank (pJ)
system.mem_ctrl_0.averagePower             573.933453                       # Core power per rank (mW)
system.mem_ctrl_0.totalIdleTime             187551750                       # Total Idle time Per DRAM Rank
system.mem_ctrl_0.memoryStateTime::IDLE        433000                       # Time in different power states
system.mem_ctrl_0.memoryStateTime::REF        7806000                       # Time in different power states
system.mem_ctrl_0.memoryStateTime::SREF       3185750                       # Time in different power states
system.mem_ctrl_0.memoryStateTime::PRE_PDN     19508500                       # Time in different power states
system.mem_ctrl_0.memoryStateTime::ACT       38571000                       # Time in different power states
system.mem_ctrl_0.memoryStateTime::ACT_PDN    165139750                       # Time in different power states
system.mem_ctrl_1.actEnergy                   1299480                       # Energy for activate commands per rank (pJ)
system.mem_ctrl_1.preEnergy                    671715                       # Energy for precharge commands per rank (pJ)
system.mem_ctrl_1.readEnergy                  3684240                       # Energy for read commands per rank (pJ)
system.mem_ctrl_1.writeEnergy                 2709180                       # Energy for write commands per rank (pJ)
system.mem_ctrl_1.refreshEnergy          17824560.000000                       # Energy for refresh commands per rank (pJ)
system.mem_ctrl_1.actBackEnergy              17968110                       # Energy for active background per rank (pJ)
system.mem_ctrl_1.preBackEnergy                656160                       # Energy for precharge background per rank (pJ)
system.mem_ctrl_1.actPowerDownEnergy         68759670                       # Energy for active power-down per rank (pJ)
system.mem_ctrl_1.prePowerDownEnergy         13134240                       # Energy for precharge power-down per rank (pJ)
system.mem_ctrl_1.selfRefreshEnergy           2601840                       # Energy for self refresh per rank (pJ)
system.mem_ctrl_1.totalEnergy               129309195                       # Total energy per rank (pJ)
system.mem_ctrl_1.averagePower             551.084383                       # Core power per rank (mW)
system.mem_ctrl_1.totalIdleTime             193353250                       # Total Idle time Per DRAM Rank
system.mem_ctrl_1.memoryStateTime::IDLE        846000                       # Time in different power states
system.mem_ctrl_1.memoryStateTime::REF        7546000                       # Time in different power states
system.mem_ctrl_1.memoryStateTime::SREF       8539750                       # Time in different power states
system.mem_ctrl_1.memoryStateTime::PRE_PDN     34204250                       # Time in different power states
system.mem_ctrl_1.memoryStateTime::ACT       32715250                       # Time in different power states
system.mem_ctrl_1.memoryStateTime::ACT_PDN    150792750                       # Time in different power states
system.pwrStateResidencyTicks::UNDEFINED    234644000                       # Cumulative time (in ticks) in various power states
system.cache.pwrStateResidencyTicks::UNDEFINED    234644000                       # Cumulative time (in ticks) in various power states
system.cache.hits                                6460                       # Number of hits
system.cache.misses                              7105                       # Number of misses
system.cache.missLatency::samples                7105                       # Ticks for misses to the cache
system.cache.missLatency::mean           31115.974666                       # Ticks for misses to the cache
system.cache.missLatency::gmean          27771.314892                       # Ticks for misses to the cache
system.cache.missLatency::stdev          23794.352958                       # Ticks for misses to the cache
system.cache.missLatency::0-65535                6784     95.48%     95.48% # Ticks for misses to the cache
system.cache.missLatency::65536-131071            270      3.80%     99.28% # Ticks for misses to the cache
system.cache.missLatency::131072-196607            30      0.42%     99.70% # Ticks for misses to the cache
system.cache.missLatency::196608-262143             5      0.07%     99.77% # Ticks for misses to the cache
system.cache.missLatency::262144-327679             7      0.10%     99.87% # Ticks for misses to the cache
system.cache.missLatency::327680-393215             7      0.10%     99.97% # Ticks for misses to the cache
system.cache.missLatency::393216-458751             0      0.00%     99.97% # Ticks for misses to the cache
system.cache.missLatency::458752-524287             0      0.00%     99.97% # Ticks for misses to the cache
system.cache.missLatency::524288-589823             0      0.00%     99.97% # Ticks for misses to the cache
system.cache.missLatency::589824-655359             2      0.03%    100.00% # Ticks for misses to the cache
system.cache.missLatency::655360-720895             0      0.00%    100.00% # Ticks for misses to the cache
system.cache.missLatency::720896-786431             0      0.00%    100.00% # Ticks for misses to the cache
system.cache.missLatency::786432-851967             0      0.00%    100.00% # Ticks for misses to the cache
system.cache.missLatency::851968-917503             0      0.00%    100.00% # Ticks for misses to the cache
system.cache.missLatency::917504-983039             0      0.00%    100.00% # Ticks for misses to the cache
system.cache.missLatency::983040-1.04858e+06            0      0.00%    100.00% # Ticks for misses to the cache
system.cache.missLatency::total                  7105                       # Ticks for misses to the cache
system.cache.hitRatio                        0.476226                       # The ratio of hits to the total accesses to the cache
system.cpu.dtb.fetch_hits                           0                       # ITB hits
system.cpu.dtb.fetch_misses                         0                       # ITB misses
system.cpu.dtb.fetch_acv                            0                       # ITB acv
system.cpu.dtb.fetch_accesses                       0                       # ITB accesses
system.cpu.dtb.read_hits                         1982                       # DTB read hits
system.cpu.dtb.read_misses                         12                       # DTB read misses
system.cpu.dtb.read_acv                             0                       # DTB read access violations
system.cpu.dtb.read_accesses                     1994                       # DTB read accesses
system.cpu.dtb.write_hits                        1240                       # DTB write hits
system.cpu.dtb.write_misses                         2                       # DTB write misses
system.cpu.dtb.write_acv                            0                       # DTB write access violations
system.cpu.dtb.write_accesses                    1242                       # DTB write accesses
system.cpu.dtb.data_hits                         3222                       # DTB hits
system.cpu.dtb.data_misses                         14                       # DTB misses
system.cpu.dtb.data_acv                             0                       # DTB access violations
system.cpu.dtb.data_accesses                     3236                       # DTB accesses
system.cpu.itb.fetch_hits                       10344                       # ITB hits
system.cpu.itb.fetch_misses                        24                       # ITB misses
system.cpu.itb.fetch_acv                            0                       # ITB acv
system.cpu.itb.fetch_accesses                   10368                       # ITB accesses
system.cpu.itb.read_hits                            0                       # DTB read hits
system.cpu.itb.read_misses                          0                       # DTB read misses
system.cpu.itb.read_acv                             0                       # DTB read access violations
system.cpu.itb.read_accesses                        0                       # DTB read accesses
system.cpu.itb.write_hits                           0                       # DTB write hits
system.cpu.itb.write_misses                         0                       # DTB write misses
system.cpu.itb.write_acv                            0                       # DTB write access violations
system.cpu.itb.write_accesses                       0                       # DTB write accesses
system.cpu.itb.data_hits                            0                       # DTB hits
system.cpu.itb.data_misses                          0                       # DTB misses
system.cpu.itb.data_acv                             0                       # DTB access violations
system.cpu.itb.data_accesses                        0                       # DTB accesses
system.cpu.workload.numSyscalls                    10                       # Number of system calls
system.cpu.pwrStateResidencyTicks::ON       234644000                       # Cumulative time (in ticks) in various power states
system.cpu.numCycles                           234644                       # number of cpu cycles simulated
system.cpu.numWorkItemsStarted                      0                       # number of work items this cpu started
system.cpu.numWorkItemsCompleted                    0                       # number of work items this cpu completed
system.cpu.committedInsts                       10329                       # Number of instructions committed
system.cpu.committedOps                         10329                       # Number of ops (including micro ops) committed
system.cpu.num_int_alu_accesses                 10181                       # Number of integer alu accesses
system.cpu.num_fp_alu_accesses                     16                       # Number of float alu accesses
system.cpu.num_vec_alu_accesses                     0                       # Number of vector alu accesses
system.cpu.num_func_calls                         357                       # number of times a function call or return occured
system.cpu.num_conditional_control_insts         1146                       # number of instructions that are conditional controls
system.cpu.num_int_insts                        10181                       # number of integer instructions
system.cpu.num_fp_insts                            16                       # number of float instructions
system.cpu.num_vec_insts                            0                       # number of vector instructions
system.cpu.num_int_register_reads               13900                       # number of times the integer registers were read
system.cpu.num_int_register_writes               7590                       # number of times the integer registers were written
system.cpu.num_fp_register_reads                   14                       # number of times the floating registers were read
system.cpu.num_fp_register_writes                   2                       # number of times the floating registers were written
system.cpu.num_vec_register_reads                   0                       # number of times the vector registers were read
system.cpu.num_vec_register_writes                  0                       # number of times the vector registers were written
system.cpu.num_mem_refs                          3236                       # number of memory refs
system.cpu.num_load_insts                        1994                       # Number of load instructions
system.cpu.num_store_insts                       1242                       # Number of store instructions
system.cpu.num_idle_cycles                          0                       # Number of idle cycles
system.cpu.num_busy_cycles                     234644                       # Number of busy cycles
system.cpu.not_idle_fraction                        1                       # Percentage of non-idle cycles
system.cpu.idle_fraction                            0                       # Percentage of idle cycles
system.cpu.Branches                              1604                       # Number of branches fetched
system.cpu.op_class::No_OpClass                    67      0.65%      0.65% # Class of executed instruction
system.cpu.op_class::IntAlu                      6997     67.65%     68.30% # Class of executed instruction
system.cpu.op_class::IntMult                       41      0.40%     68.69% # Class of executed instruction
system.cpu.op_class::IntDiv                         0      0.00%     68.69% # Class of executed instruction
system.cpu.op_class::FloatAdd                       2      0.02%     68.71% # Class of executed instruction
system.cpu.op_class::FloatCmp                       0      0.00%     68.71% # Class of executed instruction
system.cpu.op_class::FloatCvt                       0      0.00%     68.71% # Class of executed instruction
system.cpu.op_class::FloatMult                      0      0.00%     68.71% # Class of executed instruction
system.cpu.op_class::FloatMultAcc                   0      0.00%     68.71% # Class of executed instruction
system.cpu.op_class::FloatDiv                       0      0.00%     68.71% # Class of executed instruction
system.cpu.op_class::FloatMisc                      0      0.00%     68.71% # Class of executed instruction
system.cpu.op_class::FloatSqrt                      0      0.00%     68.71% # Class of executed instruction
system.cpu.op_class::SimdAdd                        0      0.00%     68.71% # Class of executed instruction
system.cpu.op_class::SimdAddAcc                     0      0.00%     68.71% # Class of executed instruction
system.cpu.op_class::SimdAlu                        0      0.00%     68.71% # Class of executed instruction
system.cpu.op_class::SimdCmp                        0      0.00%     68.71% # Class of executed instruction
system.cpu.op_class::SimdCvt                        0      0.00%     68.71% # Class of executed instruction
system.cpu.op_class::SimdMisc                       0      0.00%     68.71% # Class of executed instruction
system.cpu.op_class::SimdMult                       0      0.00%     68.71% # Class of executed instruction
system.cpu.op_class::SimdMultAcc                    0      0.00%     68.71% # Class of executed instruction
system.cpu.op_class::SimdShift                      0      0.00%     68.71% # Class of executed instruction
system.cpu.op_class::SimdShiftAcc                   0      0.00%     68.71% # Class of executed instruction
system.cpu.op_class::SimdSqrt                       0      0.00%     68.71% # Class of executed instruction
system.cpu.op_class::SimdFloatAdd                   0      0.00%     68.71% # Class of executed instruction
system.cpu.op_class::SimdFloatAlu                   0      0.00%     68.71% # Class of executed instruction
system.cpu.op_class::SimdFloatCmp                   0      0.00%     68.71% # Class of executed instruction
system.cpu.op_class::SimdFloatCvt                   0      0.00%     68.71% # Class of executed instruction
system.cpu.op_class::SimdFloatDiv                   0      0.00%     68.71% # Class of executed instruction
system.cpu.op_class::SimdFloatMisc                  0      0.00%     68.71% # Class of executed instruction
system.cpu.op_class::SimdFloatMult                  0      0.00%     68.71% # Class of executed instruction
system.cpu.op_class::SimdFloatMultAcc               0      0.00%     68.71% # Class of executed instruction
system.cpu.op_class::SimdFloatSqrt                  0      0.00%     68.71% # Class of executed instruction
system.cpu.op_class::MemRead                     1993     19.27%     87.98% # Class of executed instruction
system.cpu.op_class::MemWrite                    1229     11.88%     99.86% # Class of executed instruction
system.cpu.op_class::FloatMemRead                   1      0.01%     99.87% # Class of executed instruction
system.cpu.op_class::FloatMemWrite                 13      0.13%    100.00% # Class of executed instruction
system.cpu.op_class::IprAccess                      0      0.00%    100.00% # Class of executed instruction
system.cpu.op_class::InstPrefetch                   0      0.00%    100.00% # Class of executed instruction
system.cpu.op_class::total                      10343                       # Class of executed instruction
system.membus.snoop_filter.tot_requests             0                       # Total number of requests made to the snoop filter.
system.membus.snoop_filter.hit_single_requests            0                       # Number of requests hitting in the snoop filter with a single holder of the requested data.
system.membus.snoop_filter.hit_multi_requests            0                       # Number of requests hitting in the snoop filter with multiple (>1) holders of the requested data.
system.membus.snoop_filter.tot_snoops               0                       # Total number of snoops made to the snoop filter.
system.membus.snoop_filter.hit_single_snoops            0                       # Number of snoops hitting in the snoop filter with a single holder of the requested data.
system.membus.snoop_filter.hit_multi_snoops            0                       # Number of snoops hitting in the snoop filter with multiple (>1) holders of the requested data.
system.membus.pwrStateResidencyTicks::UNDEFINED    234644000                       # Cumulative time (in ticks) in various power states
system.membus.trans_dist::ReadReq                7105                       # Transaction distribution
system.membus.trans_dist::ReadResp               7105                       # Transaction distribution
system.membus.trans_dist::WritebackDirty         7089                       # Transaction distribution
system.membus.pkt_count_system.cache.mem_side::system.mem_ctrl.port        21299                       # Packet count per connected master and slave (bytes)
system.membus.pkt_count::total                  21299                       # Packet count per connected master and slave (bytes)
system.membus.pkt_size_system.cache.mem_side::system.mem_ctrl.port       908416                       # Cumulative packet size per connected master and slave (bytes)
system.membus.pkt_size::total                  908416                       # Cumulative packet size per connected master and slave (bytes)
system.membus.snoops                                0                       # Total snoops (count)
system.membus.snoopTraffic                          0                       # Total snoop traffic (bytes)
system.membus.snoop_fanout::samples              7105                       # Request fanout histogram
system.membus.snoop_fanout::mean                    0                       # Request fanout histogram
system.membus.snoop_fanout::stdev                   0                       # Request fanout histogram
system.membus.snoop_fanout::underflows              0      0.00%      0.00% # Request fanout histogram
system.membus.snoop_fanout::0                    7105    100.00%    100.00% # Request fanout histogram
system.membus.snoop_fanout::overflows               0      0.00%    100.00% # Request fanout histogram
system.membus.snoop_fanout::min_value               0                       # Request fanout histogram
system.membus.snoop_fanout::max_value               0                       # Request fanout histogram
system.membus.snoop_fanout::total                7105                       # Request fanout histogram
system.membus.reqLayer0.occupancy            42550000                       # Layer occupancy (ticks)
system.membus.reqLayer0.utilization              18.1                       # Layer utilization (%)
system.membus.respLayer0.occupancy           35913750                       # Layer occupancy (ticks)
system.membus.respLayer0.utilization             15.3                       # Layer utilization (%)

---------- End Simulation Statistics   ----------
