
---------- Begin Simulation Statistics ----------
sim_seconds                                  0.000069                       # Number of seconds simulated
sim_ticks                                    69489000                       # Number of ticks simulated
final_tick                                   69489000                       # Number of ticks from beginning of simulation (restored from checkpoints and never reset)
sim_freq                                 1000000000000                       # Frequency of simulated ticks
host_inst_rate                                 458375                       # Simulator instruction rate (inst/s)
host_op_rate                                   457530                       # Simulator op (including micro ops) rate (op/s)
host_tick_rate                             4918530578                       # Simulator tick rate (ticks/s)
host_mem_usage                                8484296                       # Number of bytes of host memory used
host_seconds                                     0.01                       # Real time elapsed on the host
sim_insts                                        6453                       # Number of instructions simulated
sim_ops                                          6453                       # Number of ops (including micro ops) simulated
system.clk_domain.voltage_domain.voltage            1                       # Voltage in Volts
system.clk_domain.clock                          1000                       # Clock period in ticks
system.mem_ctrl.pwrStateResidencyTicks::UNDEFINED     69489000                       # Cumulative time (in ticks) in various power states
system.mem_ctrl.bytes_read::cpu.inst            35712                       # Number of bytes read from this memory
system.mem_ctrl.bytes_read::cpu.data            37440                       # Number of bytes read from this memory
system.mem_ctrl.bytes_read::total               73152                       # Number of bytes read from this memory
system.mem_ctrl.bytes_inst_read::cpu.inst        35712                       # Number of instructions bytes read from this memory
system.mem_ctrl.bytes_inst_read::total          35712                       # Number of instructions bytes read from this memory
system.mem_ctrl.bytes_written::writebacks        72128                       # Number of bytes written to this memory
system.mem_ctrl.bytes_written::total            72128                       # Number of bytes written to this memory
system.mem_ctrl.num_reads::cpu.inst               558                       # Number of read requests responded to by this memory
system.mem_ctrl.num_reads::cpu.data               585                       # Number of read requests responded to by this memory
system.mem_ctrl.num_reads::total                 1143                       # Number of read requests responded to by this memory
system.mem_ctrl.num_writes::writebacks           1127                       # Number of write requests responded to by this memory
system.mem_ctrl.num_writes::total                1127                       # Number of write requests responded to by this memory
system.mem_ctrl.bw_read::cpu.inst           513923067                       # Total read bandwidth from this memory (bytes/s)
system.mem_ctrl.bw_read::cpu.data           538790312                       # Total read bandwidth from this memory (bytes/s)
system.mem_ctrl.bw_read::total             1052713379                       # Total read bandwidth from this memory (bytes/s)
system.mem_ctrl.bw_inst_read::cpu.inst      513923067                       # Instruction read bandwidth from this memory (bytes/s)
system.mem_ctrl.bw_inst_read::total         513923067                       # Instruction read bandwidth from this memory (bytes/s)
system.mem_ctrl.bw_write::writebacks       1037977234                       # Write bandwidth from this memory (bytes/s)
system.mem_ctrl.bw_write::total            1037977234                       # Write bandwidth from this memory (bytes/s)
system.mem_ctrl.bw_total::writebacks       1037977234                       # Total bandwidth to/from this memory (bytes/s)
system.mem_ctrl.bw_total::cpu.inst          513923067                       # Total bandwidth to/from this memory (bytes/s)
system.mem_ctrl.bw_total::cpu.data          538790312                       # Total bandwidth to/from this memory (bytes/s)
system.mem_ctrl.bw_total::total            2090690613                       # Total bandwidth to/from this memory (bytes/s)
system.mem_ctrl.readReqs                         1143                       # Number of read requests accepted
system.mem_ctrl.writeReqs                        1127                       # Number of write requests accepted
system.mem_ctrl.readBursts                       1143                       # Number of DRAM read bursts, including those serviced by the write queue
system.mem_ctrl.writeBursts                      1127                       # Number of DRAM write bursts, including those merged in the write queue
system.mem_ctrl.bytesReadDRAM                   49600                       # Total number of bytes read from DRAM
system.mem_ctrl.bytesReadWrQ                    23552                       # Total number of bytes read from write queue
system.mem_ctrl.bytesWritten                    55936                       # Total number of bytes written to DRAM
system.mem_ctrl.bytesReadSys                    73152                       # Total read bytes from the system interface side
system.mem_ctrl.bytesWrittenSys                 72128                       # Total written bytes from the system interface side
system.mem_ctrl.servicedByWrQ                     368                       # Number of DRAM read bursts serviced by the write queue
system.mem_ctrl.mergedWrBursts                    234                       # Number of DRAM write bursts merged with an existing one
system.mem_ctrl.neitherReadNorWriteReqs             0                       # Number of requests that are neither read nor write
system.mem_ctrl.perBankRdBursts::0                 81                       # Per bank write bursts
system.mem_ctrl.perBankRdBursts::1                 47                       # Per bank write bursts
system.mem_ctrl.perBankRdBursts::2                 58                       # Per bank write bursts
system.mem_ctrl.perBankRdBursts::3                 61                       # Per bank write bursts
system.mem_ctrl.perBankRdBursts::4                 83                       # Per bank write bursts
system.mem_ctrl.perBankRdBursts::5                 20                       # Per bank write bursts
system.mem_ctrl.perBankRdBursts::6                  1                       # Per bank write bursts
system.mem_ctrl.perBankRdBursts::7                  3                       # Per bank write bursts
system.mem_ctrl.perBankRdBursts::8                  0                       # Per bank write bursts
system.mem_ctrl.perBankRdBursts::9                  1                       # Per bank write bursts
system.mem_ctrl.perBankRdBursts::10                43                       # Per bank write bursts
system.mem_ctrl.perBankRdBursts::11                30                       # Per bank write bursts
system.mem_ctrl.perBankRdBursts::12                15                       # Per bank write bursts
system.mem_ctrl.perBankRdBursts::13               241                       # Per bank write bursts
system.mem_ctrl.perBankRdBursts::14                71                       # Per bank write bursts
system.mem_ctrl.perBankRdBursts::15                20                       # Per bank write bursts
system.mem_ctrl.perBankWrBursts::0                 83                       # Per bank write bursts
system.mem_ctrl.perBankWrBursts::1                 51                       # Per bank write bursts
system.mem_ctrl.perBankWrBursts::2                 68                       # Per bank write bursts
system.mem_ctrl.perBankWrBursts::3                 63                       # Per bank write bursts
system.mem_ctrl.perBankWrBursts::4                108                       # Per bank write bursts
system.mem_ctrl.perBankWrBursts::5                 24                       # Per bank write bursts
system.mem_ctrl.perBankWrBursts::6                  1                       # Per bank write bursts
system.mem_ctrl.perBankWrBursts::7                  4                       # Per bank write bursts
system.mem_ctrl.perBankWrBursts::8                  0                       # Per bank write bursts
system.mem_ctrl.perBankWrBursts::9                  1                       # Per bank write bursts
system.mem_ctrl.perBankWrBursts::10                48                       # Per bank write bursts
system.mem_ctrl.perBankWrBursts::11                32                       # Per bank write bursts
system.mem_ctrl.perBankWrBursts::12                14                       # Per bank write bursts
system.mem_ctrl.perBankWrBursts::13               278                       # Per bank write bursts
system.mem_ctrl.perBankWrBursts::14                78                       # Per bank write bursts
system.mem_ctrl.perBankWrBursts::15                21                       # Per bank write bursts
system.mem_ctrl.numRdRetry                          0                       # Number of times read queue was full causing retry
system.mem_ctrl.numWrRetry                          0                       # Number of times write queue was full causing retry
system.mem_ctrl.totGap                       69481000                       # Total gap between requests
system.mem_ctrl.readPktSize::0                      0                       # Read request sizes (log2)
system.mem_ctrl.readPktSize::1                      0                       # Read request sizes (log2)
system.mem_ctrl.readPktSize::2                      0                       # Read request sizes (log2)
system.mem_ctrl.readPktSize::3                      0                       # Read request sizes (log2)
system.mem_ctrl.readPktSize::4                      0                       # Read request sizes (log2)
system.mem_ctrl.readPktSize::5                      0                       # Read request sizes (log2)
system.mem_ctrl.readPktSize::6                   1143                       # Read request sizes (log2)
system.mem_ctrl.writePktSize::0                     0                       # Write request sizes (log2)
system.mem_ctrl.writePktSize::1                     0                       # Write request sizes (log2)
system.mem_ctrl.writePktSize::2                     0                       # Write request sizes (log2)
system.mem_ctrl.writePktSize::3                     0                       # Write request sizes (log2)
system.mem_ctrl.writePktSize::4                     0                       # Write request sizes (log2)
system.mem_ctrl.writePktSize::5                     0                       # Write request sizes (log2)
system.mem_ctrl.writePktSize::6                  1127                       # Write request sizes (log2)
system.mem_ctrl.rdQLenPdf::0                      775                       # What read queue length does an incoming req see
system.mem_ctrl.rdQLenPdf::1                        0                       # What read queue length does an incoming req see
system.mem_ctrl.rdQLenPdf::2                        0                       # What read queue length does an incoming req see
system.mem_ctrl.rdQLenPdf::3                        0                       # What read queue length does an incoming req see
system.mem_ctrl.rdQLenPdf::4                        0                       # What read queue length does an incoming req see
system.mem_ctrl.rdQLenPdf::5                        0                       # What read queue length does an incoming req see
system.mem_ctrl.rdQLenPdf::6                        0                       # What read queue length does an incoming req see
system.mem_ctrl.rdQLenPdf::7                        0                       # What read queue length does an incoming req see
system.mem_ctrl.rdQLenPdf::8                        0                       # What read queue length does an incoming req see
system.mem_ctrl.rdQLenPdf::9                        0                       # What read queue length does an incoming req see
system.mem_ctrl.rdQLenPdf::10                       0                       # What read queue length does an incoming req see
system.mem_ctrl.rdQLenPdf::11                       0                       # What read queue length does an incoming req see
system.mem_ctrl.rdQLenPdf::12                       0                       # What read queue length does an incoming req see
system.mem_ctrl.rdQLenPdf::13                       0                       # What read queue length does an incoming req see
system.mem_ctrl.rdQLenPdf::14                       0                       # What read queue length does an incoming req see
system.mem_ctrl.rdQLenPdf::15                       0                       # What read queue length does an incoming req see
system.mem_ctrl.rdQLenPdf::16                       0                       # What read queue length does an incoming req see
system.mem_ctrl.rdQLenPdf::17                       0                       # What read queue length does an incoming req see
system.mem_ctrl.rdQLenPdf::18                       0                       # What read queue length does an incoming req see
system.mem_ctrl.rdQLenPdf::19                       0                       # What read queue length does an incoming req see
system.mem_ctrl.rdQLenPdf::20                       0                       # What read queue length does an incoming req see
system.mem_ctrl.rdQLenPdf::21                       0                       # What read queue length does an incoming req see
system.mem_ctrl.rdQLenPdf::22                       0                       # What read queue length does an incoming req see
system.mem_ctrl.rdQLenPdf::23                       0                       # What read queue length does an incoming req see
system.mem_ctrl.rdQLenPdf::24                       0                       # What read queue length does an incoming req see
system.mem_ctrl.rdQLenPdf::25                       0                       # What read queue length does an incoming req see
system.mem_ctrl.rdQLenPdf::26                       0                       # What read queue length does an incoming req see
system.mem_ctrl.rdQLenPdf::27                       0                       # What read queue length does an incoming req see
system.mem_ctrl.rdQLenPdf::28                       0                       # What read queue length does an incoming req see
system.mem_ctrl.rdQLenPdf::29                       0                       # What read queue length does an incoming req see
system.mem_ctrl.rdQLenPdf::30                       0                       # What read queue length does an incoming req see
system.mem_ctrl.rdQLenPdf::31                       0                       # What read queue length does an incoming req see
system.mem_ctrl.wrQLenPdf::0                        1                       # What write queue length does an incoming req see
system.mem_ctrl.wrQLenPdf::1                        1                       # What write queue length does an incoming req see
system.mem_ctrl.wrQLenPdf::2                        1                       # What write queue length does an incoming req see
system.mem_ctrl.wrQLenPdf::3                        1                       # What write queue length does an incoming req see
system.mem_ctrl.wrQLenPdf::4                        1                       # What write queue length does an incoming req see
system.mem_ctrl.wrQLenPdf::5                        1                       # What write queue length does an incoming req see
system.mem_ctrl.wrQLenPdf::6                        1                       # What write queue length does an incoming req see
system.mem_ctrl.wrQLenPdf::7                        1                       # What write queue length does an incoming req see
system.mem_ctrl.wrQLenPdf::8                        1                       # What write queue length does an incoming req see
system.mem_ctrl.wrQLenPdf::9                        1                       # What write queue length does an incoming req see
system.mem_ctrl.wrQLenPdf::10                       1                       # What write queue length does an incoming req see
system.mem_ctrl.wrQLenPdf::11                       1                       # What write queue length does an incoming req see
system.mem_ctrl.wrQLenPdf::12                       1                       # What write queue length does an incoming req see
system.mem_ctrl.wrQLenPdf::13                       1                       # What write queue length does an incoming req see
system.mem_ctrl.wrQLenPdf::14                       1                       # What write queue length does an incoming req see
system.mem_ctrl.wrQLenPdf::15                       3                       # What write queue length does an incoming req see
system.mem_ctrl.wrQLenPdf::16                       4                       # What write queue length does an incoming req see
system.mem_ctrl.wrQLenPdf::17                      46                       # What write queue length does an incoming req see
system.mem_ctrl.wrQLenPdf::18                      55                       # What write queue length does an incoming req see
system.mem_ctrl.wrQLenPdf::19                      57                       # What write queue length does an incoming req see
system.mem_ctrl.wrQLenPdf::20                      54                       # What write queue length does an incoming req see
system.mem_ctrl.wrQLenPdf::21                      55                       # What write queue length does an incoming req see
system.mem_ctrl.wrQLenPdf::22                      54                       # What write queue length does an incoming req see
system.mem_ctrl.wrQLenPdf::23                      64                       # What write queue length does an incoming req see
system.mem_ctrl.wrQLenPdf::24                      54                       # What write queue length does an incoming req see
system.mem_ctrl.wrQLenPdf::25                      54                       # What write queue length does an incoming req see
system.mem_ctrl.wrQLenPdf::26                      54                       # What write queue length does an incoming req see
system.mem_ctrl.wrQLenPdf::27                      54                       # What write queue length does an incoming req see
system.mem_ctrl.wrQLenPdf::28                      54                       # What write queue length does an incoming req see
system.mem_ctrl.wrQLenPdf::29                      54                       # What write queue length does an incoming req see
system.mem_ctrl.wrQLenPdf::30                      54                       # What write queue length does an incoming req see
system.mem_ctrl.wrQLenPdf::31                      54                       # What write queue length does an incoming req see
system.mem_ctrl.wrQLenPdf::32                      54                       # What write queue length does an incoming req see
system.mem_ctrl.wrQLenPdf::33                       0                       # What write queue length does an incoming req see
system.mem_ctrl.wrQLenPdf::34                       0                       # What write queue length does an incoming req see
system.mem_ctrl.wrQLenPdf::35                       0                       # What write queue length does an incoming req see
system.mem_ctrl.wrQLenPdf::36                       0                       # What write queue length does an incoming req see
system.mem_ctrl.wrQLenPdf::37                       0                       # What write queue length does an incoming req see
system.mem_ctrl.wrQLenPdf::38                       0                       # What write queue length does an incoming req see
system.mem_ctrl.wrQLenPdf::39                       0                       # What write queue length does an incoming req see
system.mem_ctrl.wrQLenPdf::40                       0                       # What write queue length does an incoming req see
system.mem_ctrl.wrQLenPdf::41                       0                       # What write queue length does an incoming req see
system.mem_ctrl.wrQLenPdf::42                       0                       # What write queue length does an incoming req see
system.mem_ctrl.wrQLenPdf::43                       0                       # What write queue length does an incoming req see
system.mem_ctrl.wrQLenPdf::44                       0                       # What write queue length does an incoming req see
system.mem_ctrl.wrQLenPdf::45                       0                       # What write queue length does an incoming req see
system.mem_ctrl.wrQLenPdf::46                       0                       # What write queue length does an incoming req see
system.mem_ctrl.wrQLenPdf::47                       0                       # What write queue length does an incoming req see
system.mem_ctrl.wrQLenPdf::48                       0                       # What write queue length does an incoming req see
system.mem_ctrl.wrQLenPdf::49                       0                       # What write queue length does an incoming req see
system.mem_ctrl.wrQLenPdf::50                       0                       # What write queue length does an incoming req see
system.mem_ctrl.wrQLenPdf::51                       0                       # What write queue length does an incoming req see
system.mem_ctrl.wrQLenPdf::52                       0                       # What write queue length does an incoming req see
system.mem_ctrl.wrQLenPdf::53                       0                       # What write queue length does an incoming req see
system.mem_ctrl.wrQLenPdf::54                       0                       # What write queue length does an incoming req see
system.mem_ctrl.wrQLenPdf::55                       0                       # What write queue length does an incoming req see
system.mem_ctrl.wrQLenPdf::56                       0                       # What write queue length does an incoming req see
system.mem_ctrl.wrQLenPdf::57                       0                       # What write queue length does an incoming req see
system.mem_ctrl.wrQLenPdf::58                       0                       # What write queue length does an incoming req see
system.mem_ctrl.wrQLenPdf::59                       0                       # What write queue length does an incoming req see
system.mem_ctrl.wrQLenPdf::60                       0                       # What write queue length does an incoming req see
system.mem_ctrl.wrQLenPdf::61                       0                       # What write queue length does an incoming req see
system.mem_ctrl.wrQLenPdf::62                       0                       # What write queue length does an incoming req see
system.mem_ctrl.wrQLenPdf::63                       0                       # What write queue length does an incoming req see
system.mem_ctrl.bytesPerActivate::samples          229                       # Bytes accessed per row activation
system.mem_ctrl.bytesPerActivate::mean     452.471616                       # Bytes accessed per row activation
system.mem_ctrl.bytesPerActivate::gmean    281.890171                       # Bytes accessed per row activation
system.mem_ctrl.bytesPerActivate::stdev    374.595531                       # Bytes accessed per row activation
system.mem_ctrl.bytesPerActivate::0-127            56     24.45%     24.45% # Bytes accessed per row activation
system.mem_ctrl.bytesPerActivate::128-255           39     17.03%     41.48% # Bytes accessed per row activation
system.mem_ctrl.bytesPerActivate::256-383           23     10.04%     51.53% # Bytes accessed per row activation
system.mem_ctrl.bytesPerActivate::384-511           18      7.86%     59.39% # Bytes accessed per row activation
system.mem_ctrl.bytesPerActivate::512-639           19      8.30%     67.69% # Bytes accessed per row activation
system.mem_ctrl.bytesPerActivate::640-767           11      4.80%     72.49% # Bytes accessed per row activation
system.mem_ctrl.bytesPerActivate::768-895            7      3.06%     75.55% # Bytes accessed per row activation
system.mem_ctrl.bytesPerActivate::896-1023            5      2.18%     77.73% # Bytes accessed per row activation
system.mem_ctrl.bytesPerActivate::1024-1151           51     22.27%    100.00% # Bytes accessed per row activation
system.mem_ctrl.bytesPerActivate::total           229                       # Bytes accessed per row activation
system.mem_ctrl.rdPerTurnAround::samples           54                       # Reads before turning the bus around for writes
system.mem_ctrl.rdPerTurnAround::mean       14.333333                       # Reads before turning the bus around for writes
system.mem_ctrl.rdPerTurnAround::gmean      13.691853                       # Reads before turning the bus around for writes
system.mem_ctrl.rdPerTurnAround::stdev       5.139562                       # Reads before turning the bus around for writes
system.mem_ctrl.rdPerTurnAround::4-5                1      1.85%      1.85% # Reads before turning the bus around for writes
system.mem_ctrl.rdPerTurnAround::6-7                1      1.85%      3.70% # Reads before turning the bus around for writes
system.mem_ctrl.rdPerTurnAround::8-9                2      3.70%      7.41% # Reads before turning the bus around for writes
system.mem_ctrl.rdPerTurnAround::10-11              5      9.26%     16.67% # Reads before turning the bus around for writes
system.mem_ctrl.rdPerTurnAround::12-13             15     27.78%     44.44% # Reads before turning the bus around for writes
system.mem_ctrl.rdPerTurnAround::14-15             10     18.52%     62.96% # Reads before turning the bus around for writes
system.mem_ctrl.rdPerTurnAround::16-17             16     29.63%     92.59% # Reads before turning the bus around for writes
system.mem_ctrl.rdPerTurnAround::18-19              2      3.70%     96.30% # Reads before turning the bus around for writes
system.mem_ctrl.rdPerTurnAround::20-21              1      1.85%     98.15% # Reads before turning the bus around for writes
system.mem_ctrl.rdPerTurnAround::44-45              1      1.85%    100.00% # Reads before turning the bus around for writes
system.mem_ctrl.rdPerTurnAround::total             54                       # Reads before turning the bus around for writes
system.mem_ctrl.wrPerTurnAround::samples           54                       # Writes before turning the bus around for reads
system.mem_ctrl.wrPerTurnAround::mean       16.185185                       # Writes before turning the bus around for reads
system.mem_ctrl.wrPerTurnAround::gmean      16.169046                       # Writes before turning the bus around for reads
system.mem_ctrl.wrPerTurnAround::stdev       0.778825                       # Writes before turning the bus around for reads
system.mem_ctrl.wrPerTurnAround::16                50     92.59%     92.59% # Writes before turning the bus around for reads
system.mem_ctrl.wrPerTurnAround::17                 2      3.70%     96.30% # Writes before turning the bus around for reads
system.mem_ctrl.wrPerTurnAround::20                 2      3.70%    100.00% # Writes before turning the bus around for reads
system.mem_ctrl.wrPerTurnAround::total             54                       # Writes before turning the bus around for reads
system.mem_ctrl.totQLat                      13814750                       # Total ticks spent queuing
system.mem_ctrl.totMemAccLat                 28346000                       # Total ticks spent from burst creation until serviced by the DRAM
system.mem_ctrl.totBusLat                     3875000                       # Total ticks spent in databus transfers
system.mem_ctrl.avgQLat                      17825.48                       # Average queueing delay per DRAM burst
system.mem_ctrl.avgBusLat                     5000.00                       # Average bus latency per DRAM burst
system.mem_ctrl.avgMemAccLat                 36575.48                       # Average memory access latency per DRAM burst
system.mem_ctrl.avgRdBW                        713.78                       # Average DRAM read bandwidth in MiByte/s
system.mem_ctrl.avgWrBW                        804.96                       # Average achieved write bandwidth in MiByte/s
system.mem_ctrl.avgRdBWSys                    1052.71                       # Average system read bandwidth in MiByte/s
system.mem_ctrl.avgWrBWSys                    1037.98                       # Average system write bandwidth in MiByte/s
system.mem_ctrl.peakBW                       12800.00                       # Theoretical peak bandwidth in MiByte/s
system.mem_ctrl.busUtil                         11.87                       # Data bus utilization in percentage
system.mem_ctrl.busUtilRead                      5.58                       # Data bus utilization in percentage for reads
system.mem_ctrl.busUtilWrite                     6.29                       # Data bus utilization in percentage for writes
system.mem_ctrl.avgRdQLen                        1.00                       # Average read queue length when enqueuing
system.mem_ctrl.avgWrQLen                       25.33                       # Average write queue length when enqueuing
system.mem_ctrl.readRowHits                       591                       # Number of row buffer hits during reads
system.mem_ctrl.writeRowHits                      821                       # Number of row buffer hits during writes
system.mem_ctrl.readRowHitRate                  76.26                       # Row buffer hit rate for reads
system.mem_ctrl.writeRowHitRate                 91.94                       # Row buffer hit rate for writes
system.mem_ctrl.avgGap                       30608.37                       # Average gap between requests
system.mem_ctrl.pageHitRate                     84.65                       # Row buffer hit rate, read and write combined
system.mem_ctrl_0.actEnergy                    599760                       # Energy for activate commands per rank (pJ)
system.mem_ctrl_0.preEnergy                    303600                       # Energy for precharge commands per rank (pJ)
system.mem_ctrl_0.readEnergy                  2527560                       # Energy for read commands per rank (pJ)
system.mem_ctrl_0.writeEnergy                 2098440                       # Energy for write commands per rank (pJ)
system.mem_ctrl_0.refreshEnergy          4917120.000000                       # Energy for refresh commands per rank (pJ)
system.mem_ctrl_0.actBackEnergy              11782470                       # Energy for active background per rank (pJ)
system.mem_ctrl_0.preBackEnergy                 94560                       # Energy for precharge background per rank (pJ)
system.mem_ctrl_0.actPowerDownEnergy         19660440                       # Energy for active power-down per rank (pJ)
system.mem_ctrl_0.prePowerDownEnergy           111360                       # Energy for precharge power-down per rank (pJ)
system.mem_ctrl_0.selfRefreshEnergy                 0                       # Energy for self refresh per rank (pJ)
system.mem_ctrl_0.totalEnergy                42095310                       # Total energy per rank (pJ)
system.mem_ctrl_0.averagePower             605.775076                       # Core power per rank (mW)
system.mem_ctrl_0.totalIdleTime              43378000                       # Total Idle time Per DRAM Rank
system.mem_ctrl_0.memoryStateTime::IDLE         25000                       # Time in different power states
system.mem_ctrl_0.memoryStateTime::REF        2080000                       # Time in different power states
system.mem_ctrl_0.memoryStateTime::SREF             0                       # Time in different power states
system.mem_ctrl_0.memoryStateTime::PRE_PDN       289500                       # Time in different power states
system.mem_ctrl_0.memoryStateTime::ACT       23968250                       # Time in different power states
system.mem_ctrl_0.memoryStateTime::ACT_PDN     43126250                       # Time in different power states
system.mem_ctrl_1.actEnergy                   1092420                       # Energy for activate commands per rank (pJ)
system.mem_ctrl_1.preEnergy                    565455                       # Energy for precharge commands per rank (pJ)
system.mem_ctrl_1.readEnergy                  3005940                       # Energy for read commands per rank (pJ)
system.mem_ctrl_1.writeEnergy                 2463840                       # Energy for write commands per rank (pJ)
system.mem_ctrl_1.refreshEnergy          4917120.000000                       # Energy for refresh commands per rank (pJ)
system.mem_ctrl_1.actBackEnergy              10371720                       # Energy for active background per rank (pJ)
system.mem_ctrl_1.preBackEnergy                177120                       # Energy for precharge background per rank (pJ)
system.mem_ctrl_1.actPowerDownEnergy         20806140                       # Energy for active power-down per rank (pJ)
system.mem_ctrl_1.prePowerDownEnergy           252000                       # Energy for precharge power-down per rank (pJ)
system.mem_ctrl_1.selfRefreshEnergy                 0                       # Energy for self refresh per rank (pJ)
system.mem_ctrl_1.totalEnergy                43651755                       # Total energy per rank (pJ)
system.mem_ctrl_1.averagePower             628.173190                       # Core power per rank (mW)
system.mem_ctrl_1.totalIdleTime              46285750                       # Total Idle time Per DRAM Rank
system.mem_ctrl_1.memoryStateTime::IDLE        198000                       # Time in different power states
system.mem_ctrl_1.memoryStateTime::REF        2080000                       # Time in different power states
system.mem_ctrl_1.memoryStateTime::SREF             0                       # Time in different power states
system.mem_ctrl_1.memoryStateTime::PRE_PDN       655500                       # Time in different power states
system.mem_ctrl_1.memoryStateTime::ACT       20925250                       # Time in different power states
system.mem_ctrl_1.memoryStateTime::ACT_PDN     45630250                       # Time in different power states
system.pwrStateResidencyTicks::UNDEFINED     69489000                       # Cumulative time (in ticks) in various power states
system.cache.pwrStateResidencyTicks::UNDEFINED     69489000                       # Cumulative time (in ticks) in various power states
system.cache.hits                                7375                       # Number of hits
system.cache.misses                              1143                       # Number of misses
system.cache.missLatency::samples                1143                       # Ticks for misses to the cache
system.cache.missLatency::mean           53342.957130                       # Ticks for misses to the cache
system.cache.missLatency::gmean          45283.788018                       # Ticks for misses to the cache
system.cache.missLatency::stdev          35639.412755                       # Ticks for misses to the cache
system.cache.missLatency::0-32767                 368     32.20%     32.20% # Ticks for misses to the cache
system.cache.missLatency::32768-65535             574     50.22%     82.41% # Ticks for misses to the cache
system.cache.missLatency::65536-98303             145     12.69%     95.10% # Ticks for misses to the cache
system.cache.missLatency::98304-131071             15      1.31%     96.41% # Ticks for misses to the cache
system.cache.missLatency::131072-163839            26      2.27%     98.69% # Ticks for misses to the cache
system.cache.missLatency::163840-196607             6      0.52%     99.21% # Ticks for misses to the cache
system.cache.missLatency::196608-229375             1      0.09%     99.30% # Ticks for misses to the cache
system.cache.missLatency::229376-262143             0      0.00%     99.30% # Ticks for misses to the cache
system.cache.missLatency::262144-294911             2      0.17%     99.48% # Ticks for misses to the cache
system.cache.missLatency::294912-327679             4      0.35%     99.83% # Ticks for misses to the cache
system.cache.missLatency::327680-360447             2      0.17%    100.00% # Ticks for misses to the cache
system.cache.missLatency::360448-393215             0      0.00%    100.00% # Ticks for misses to the cache
system.cache.missLatency::393216-425983             0      0.00%    100.00% # Ticks for misses to the cache
system.cache.missLatency::425984-458751             0      0.00%    100.00% # Ticks for misses to the cache
system.cache.missLatency::458752-491519             0      0.00%    100.00% # Ticks for misses to the cache
system.cache.missLatency::491520-524287             0      0.00%    100.00% # Ticks for misses to the cache
system.cache.missLatency::total                  1143                       # Ticks for misses to the cache
system.cache.hitRatio                        0.865814                       # The ratio of hits to the total accesses to the cache
system.cpu.dtb.fetch_hits                           0                       # ITB hits
system.cpu.dtb.fetch_misses                         0                       # ITB misses
system.cpu.dtb.fetch_acv                            0                       # ITB acv
system.cpu.dtb.fetch_accesses                       0                       # ITB accesses
system.cpu.dtb.read_hits                         1190                       # DTB read hits
system.cpu.dtb.read_misses                          7                       # DTB read misses
system.cpu.dtb.read_acv                             0                       # DTB read access violations
system.cpu.dtb.read_accesses                     1197                       # DTB read accesses
system.cpu.dtb.write_hits                         865                       # DTB write hits
system.cpu.dtb.write_misses                         3                       # DTB write misses
system.cpu.dtb.write_acv                            0                       # DTB write access violations
system.cpu.dtb.write_accesses                     868                       # DTB write accesses
system.cpu.dtb.data_hits                         2055                       # DTB hits
system.cpu.dtb.data_misses                         10                       # DTB misses
system.cpu.dtb.data_acv                             0                       # DTB access violations
system.cpu.dtb.data_accesses                     2065                       # DTB accesses
system.cpu.itb.fetch_hits                        6464                       # ITB hits
system.cpu.itb.fetch_misses                        17                       # ITB misses
system.cpu.itb.fetch_acv                            0                       # ITB acv
system.cpu.itb.fetch_accesses                    6481                       # ITB accesses
system.cpu.itb.read_hits                            0                       # DTB read hits
system.cpu.itb.read_misses                          0                       # DTB read misses
system.cpu.itb.read_acv                             0                       # DTB read access violations
system.cpu.itb.read_accesses                        0                       # DTB read accesses
system.cpu.itb.write_hits                           0                       # DTB write hits
system.cpu.itb.write_misses                         0                       # DTB write misses
system.cpu.itb.write_acv                            0                       # DTB write access violations
system.cpu.itb.write_accesses                       0                       # DTB write accesses
system.cpu.itb.data_hits                            0                       # DTB hits
system.cpu.itb.data_misses                          0                       # DTB misses
system.cpu.itb.data_acv                             0                       # DTB access violations
system.cpu.itb.data_accesses                        0                       # DTB accesses
system.cpu.workload.numSyscalls                    17                       # Number of system calls
system.cpu.pwrStateResidencyTicks::ON        69489000                       # Cumulative time (in ticks) in various power states
system.cpu.numCycles                            69489                       # number of cpu cycles simulated
system.cpu.numWorkItemsStarted                      0                       # number of work items this cpu started
system.cpu.numWorkItemsCompleted                    0                       # number of work items this cpu completed
system.cpu.committedInsts                        6453                       # Number of instructions committed
system.cpu.committedOps                          6453                       # Number of ops (including micro ops) committed
system.cpu.num_int_alu_accesses                  6380                       # Number of integer alu accesses
system.cpu.num_fp_alu_accesses                     10                       # Number of float alu accesses
system.cpu.num_vec_alu_accesses                     0                       # Number of vector alu accesses
system.cpu.num_func_calls                         251                       # number of times a function call or return occured
system.cpu.num_conditional_control_insts          759                       # number of instructions that are conditional controls
system.cpu.num_int_insts                         6380                       # number of integer instructions
system.cpu.num_fp_insts                            10                       # number of float instructions
system.cpu.num_vec_insts                            0                       # number of vector instructions
system.cpu.num_int_register_reads                8392                       # number of times the integer registers were read
system.cpu.num_int_register_writes               4621                       # number of times the integer registers were written
system.cpu.num_fp_register_reads                    8                       # number of times the floating registers were read
system.cpu.num_fp_register_writes                   2                       # number of times the floating registers were written
system.cpu.num_vec_register_reads                   0                       # number of times the vector registers were read
system.cpu.num_vec_register_writes                  0                       # number of times the vector registers were written
system.cpu.num_mem_refs                          2065                       # number of memory refs
system.cpu.num_load_insts                        1197                       # Number of load instructions
system.cpu.num_store_insts                        868                       # Number of store instructions
system.cpu.num_idle_cycles                          0                       # Number of idle cycles
system.cpu.num_busy_cycles                      69489                       # Number of busy cycles
system.cpu.not_idle_fraction                        1                       # Percentage of non-idle cycles
system.cpu.idle_fraction                            0                       # Percentage of idle cycles
system.cpu.Branches                              1060                       # Number of branches fetched
system.cpu.op_class::No_OpClass                    19      0.29%      0.29% # Class of executed instruction
system.cpu.op_class::IntAlu                      4376     67.71%     68.00% # Class of executed instruction
system.cpu.op_class::IntMult                        1      0.02%     68.02% # Class of executed instruction
system.cpu.op_class::IntDiv                         0      0.00%     68.02% # Class of executed instruction
system.cpu.op_class::FloatAdd                       2      0.03%     68.05% # Class of executed instruction
system.cpu.op_class::FloatCmp                       0      0.00%     68.05% # Class of executed instruction
system.cpu.op_class::FloatCvt                       0      0.00%     68.05% # Class of executed instruction
system.cpu.op_class::FloatMult                      0      0.00%     68.05% # Class of executed instruction
system.cpu.op_class::FloatMultAcc                   0      0.00%     68.05% # Class of executed instruction
system.cpu.op_class::FloatDiv                       0      0.00%     68.05% # Class of executed instruction
system.cpu.op_class::FloatMisc                      0      0.00%     68.05% # Class of executed instruction
system.cpu.op_class::FloatSqrt                      0      0.00%     68.05% # Class of executed instruction
system.cpu.op_class::SimdAdd                        0      0.00%     68.05% # Class of executed instruction
system.cpu.op_class::SimdAddAcc                     0      0.00%     68.05% # Class of executed instruction
system.cpu.op_class::SimdAlu                        0      0.00%     68.05% # Class of executed instruction
system.cpu.op_class::SimdCmp                        0      0.00%     68.05% # Class of executed instruction
system.cpu.op_class::SimdCvt                        0      0.00%     68.05% # Class of executed instruction
system.cpu.op_class::SimdMisc                       0      0.00%     68.05% # Class of executed instruction
system.cpu.op_class::SimdMult                       0      0.00%     68.05% # Class of executed instruction
system.cpu.op_class::SimdMultAcc                    0      0.00%     68.05% # Class of executed instruction
system.cpu.op_class::SimdShift                      0      0.00%     68.05% # Class of executed instruction
system.cpu.op_class::SimdShiftAcc                   0      0.00%     68.05% # Class of executed instruction
system.cpu.op_class::SimdSqrt                       0      0.00%     68.05% # Class of executed instruction
system.cpu.op_class::SimdFloatAdd                   0      0.00%     68.05% # Class of executed instruction
system.cpu.op_class::SimdFloatAlu                   0      0.00%     68.05% # Class of executed instruction
system.cpu.op_class::SimdFloatCmp                   0      0.00%     68.05% # Class of executed instruction
system.cpu.op_class::SimdFloatCvt                   0      0.00%     68.05% # Class of executed instruction
system.cpu.op_class::SimdFloatDiv                   0      0.00%     68.05% # Class of executed instruction
system.cpu.op_class::SimdFloatMisc                  0      0.00%     68.05% # Class of executed instruction
system.cpu.op_class::SimdFloatMult                  0      0.00%     68.05% # Class of executed instruction
system.cpu.op_class::SimdFloatMultAcc               0      0.00%     68.05% # Class of executed instruction
system.cpu.op_class::SimdFloatSqrt                  0      0.00%     68.05% # Class of executed instruction
system.cpu.op_class::MemRead                     1196     18.51%     86.55% # Class of executed instruction
system.cpu.op_class::MemWrite                     861     13.32%     99.88% # Class of executed instruction
system.cpu.op_class::FloatMemRead                   1      0.02%     99.89% # Class of executed instruction
system.cpu.op_class::FloatMemWrite                  7      0.11%    100.00% # Class of executed instruction
system.cpu.op_class::IprAccess                      0      0.00%    100.00% # Class of executed instruction
system.cpu.op_class::InstPrefetch                   0      0.00%    100.00% # Class of executed instruction
system.cpu.op_class::total                       6463                       # Class of executed instruction
system.membus.snoop_filter.tot_requests             0                       # Total number of requests made to the snoop filter.
system.membus.snoop_filter.hit_single_requests            0                       # Number of requests hitting in the snoop filter with a single holder of the requested data.
system.membus.snoop_filter.hit_multi_requests            0                       # Number of requests hitting in the snoop filter with multiple (>1) holders of the requested data.
system.membus.snoop_filter.tot_snoops               0                       # Total number of snoops made to the snoop filter.
system.membus.snoop_filter.hit_single_snoops            0                       # Number of snoops hitting in the snoop filter with a single holder of the requested data.
system.membus.snoop_filter.hit_multi_snoops            0                       # Number of snoops hitting in the snoop filter with multiple (>1) holders of the requested data.
system.membus.pwrStateResidencyTicks::UNDEFINED     69489000                       # Cumulative time (in ticks) in various power states
system.membus.trans_dist::ReadReq                1143                       # Transaction distribution
system.membus.trans_dist::ReadResp               1143                       # Transaction distribution
system.membus.trans_dist::WritebackDirty         1127                       # Transaction distribution
system.membus.pkt_count_system.cache.mem_side::system.mem_ctrl.port         3413                       # Packet count per connected master and slave (bytes)
system.membus.pkt_count::total                   3413                       # Packet count per connected master and slave (bytes)
system.membus.pkt_size_system.cache.mem_side::system.mem_ctrl.port       145280                       # Cumulative packet size per connected master and slave (bytes)
system.membus.pkt_size::total                  145280                       # Cumulative packet size per connected master and slave (bytes)
system.membus.snoops                                0                       # Total snoops (count)
system.membus.snoopTraffic                          0                       # Total snoop traffic (bytes)
system.membus.snoop_fanout::samples              1143                       # Request fanout histogram
system.membus.snoop_fanout::mean                    0                       # Request fanout histogram
system.membus.snoop_fanout::stdev                   0                       # Request fanout histogram
system.membus.snoop_fanout::underflows              0      0.00%      0.00% # Request fanout histogram
system.membus.snoop_fanout::0                    1143    100.00%    100.00% # Request fanout histogram
system.membus.snoop_fanout::overflows               0      0.00%    100.00% # Request fanout histogram
system.membus.snoop_fanout::min_value               0                       # Request fanout histogram
system.membus.snoop_fanout::max_value               0                       # Request fanout histogram
system.membus.snoop_fanout::total                1143                       # Request fanout histogram
system.membus.reqLayer0.occupancy             6778000                       # Layer occupancy (ticks)
system.membus.reqLayer0.utilization               9.8                       # Layer utilization (%)
system.membus.respLayer0.occupancy            5970000                       # Layer occupancy (ticks)
system.membus.respLayer0.utilization              8.6                       # Layer utilization (%)

---------- End Simulation Statistics   ----------
