
---------- Begin Simulation Statistics ----------
sim_seconds                                  0.000162                       # Number of seconds simulated
sim_ticks                                   161601000                       # Number of ticks simulated
final_tick                                  161601000                       # Number of ticks from beginning of simulation (restored from checkpoints and never reset)
sim_freq                                 1000000000000                       # Frequency of simulated ticks
host_inst_rate                                 463660                       # Simulator instruction rate (inst/s)
host_op_rate                                   463204                       # Simulator op (including micro ops) rate (op/s)
host_tick_rate                             5885174260                       # Simulator tick rate (ticks/s)
host_mem_usage                                8485376                       # Number of bytes of host memory used
host_seconds                                     0.03                       # Real time elapsed on the host
sim_insts                                       12708                       # Number of instructions simulated
sim_ops                                         12708                       # Number of ops (including micro ops) simulated
system.clk_domain.voltage_domain.voltage            1                       # Voltage in Volts
system.clk_domain.clock                          1000                       # Clock period in ticks
system.mem_ctrl.pwrStateResidencyTicks::UNDEFINED    161601000                       # Cumulative time (in ticks) in various power states
system.mem_ctrl.bytes_read::cpu.inst            82944                       # Number of bytes read from this memory
system.mem_ctrl.bytes_read::cpu.data            90240                       # Number of bytes read from this memory
system.mem_ctrl.bytes_read::total              173184                       # Number of bytes read from this memory
system.mem_ctrl.bytes_inst_read::cpu.inst        82944                       # Number of instructions bytes read from this memory
system.mem_ctrl.bytes_inst_read::total          82944                       # Number of instructions bytes read from this memory
system.mem_ctrl.bytes_written::writebacks       172160                       # Number of bytes written to this memory
system.mem_ctrl.bytes_written::total           172160                       # Number of bytes written to this memory
system.mem_ctrl.num_reads::cpu.inst              1296                       # Number of read requests responded to by this memory
system.mem_ctrl.num_reads::cpu.data              1410                       # Number of read requests responded to by this memory
system.mem_ctrl.num_reads::total                 2706                       # Number of read requests responded to by this memory
system.mem_ctrl.num_writes::writebacks           2690                       # Number of write requests responded to by this memory
system.mem_ctrl.num_writes::total                2690                       # Number of write requests responded to by this memory
system.mem_ctrl.bw_read::cpu.inst           513264151                       # Total read bandwidth from this memory (bytes/s)
system.mem_ctrl.bw_read::cpu.data           558412386                       # Total read bandwidth from this memory (bytes/s)
system.mem_ctrl.bw_read::total             1071676537                       # Total read bandwidth from this memory (bytes/s)
system.mem_ctrl.bw_inst_read::cpu.inst      513264151                       # Instruction read bandwidth from this memory (bytes/s)
system.mem_ctrl.bw_inst_read::total         513264151                       # Instruction read bandwidth from this memory (bytes/s)
system.mem_ctrl.bw_write::writebacks       1065339942                       # Write bandwidth from this memory (bytes/s)
system.mem_ctrl.bw_write::total            1065339942                       # Write bandwidth from this memory (bytes/s)
system.mem_ctrl.bw_total::writebacks       1065339942                       # Total bandwidth to/from this memory (bytes/s)
system.mem_ctrl.bw_total::cpu.inst          513264151                       # Total bandwidth to/from this memory (bytes/s)
system.mem_ctrl.bw_total::cpu.data          558412386                       # Total bandwidth to/from this memory (bytes/s)
system.mem_ctrl.bw_total::total            2137016479                       # Total bandwidth to/from this memory (bytes/s)
system.mem_ctrl.readReqs                         2706                       # Number of read requests accepted
system.mem_ctrl.writeReqs                        2690                       # Number of write requests accepted
system.mem_ctrl.readBursts                       2706                       # Number of DRAM read bursts, including those serviced by the write queue
system.mem_ctrl.writeBursts                      2690                       # Number of DRAM write bursts, including those merged in the write queue
system.mem_ctrl.bytesReadDRAM                  118400                       # Total number of bytes read from DRAM
system.mem_ctrl.bytesReadWrQ                    54784                       # Total number of bytes read from write queue
system.mem_ctrl.bytesWritten                   133824                       # Total number of bytes written to DRAM
system.mem_ctrl.bytesReadSys                   173184                       # Total read bytes from the system interface side
system.mem_ctrl.bytesWrittenSys                172160                       # Total written bytes from the system interface side
system.mem_ctrl.servicedByWrQ                     856                       # Number of DRAM read bursts serviced by the write queue
system.mem_ctrl.mergedWrBursts                    577                       # Number of DRAM write bursts merged with an existing one
system.mem_ctrl.neitherReadNorWriteReqs             0                       # Number of requests that are neither read nor write
system.mem_ctrl.perBankRdBursts::0                 81                       # Per bank write bursts
system.mem_ctrl.perBankRdBursts::1                  0                       # Per bank write bursts
system.mem_ctrl.perBankRdBursts::2                283                       # Per bank write bursts
system.mem_ctrl.perBankRdBursts::3                207                       # Per bank write bursts
system.mem_ctrl.perBankRdBursts::4                 90                       # Per bank write bursts
system.mem_ctrl.perBankRdBursts::5                 96                       # Per bank write bursts
system.mem_ctrl.perBankRdBursts::6                351                       # Per bank write bursts
system.mem_ctrl.perBankRdBursts::7                 64                       # Per bank write bursts
system.mem_ctrl.perBankRdBursts::8                 52                       # Per bank write bursts
system.mem_ctrl.perBankRdBursts::9                314                       # Per bank write bursts
system.mem_ctrl.perBankRdBursts::10                20                       # Per bank write bursts
system.mem_ctrl.perBankRdBursts::11                45                       # Per bank write bursts
system.mem_ctrl.perBankRdBursts::12                17                       # Per bank write bursts
system.mem_ctrl.perBankRdBursts::13                50                       # Per bank write bursts
system.mem_ctrl.perBankRdBursts::14               105                       # Per bank write bursts
system.mem_ctrl.perBankRdBursts::15                75                       # Per bank write bursts
system.mem_ctrl.perBankWrBursts::0                 90                       # Per bank write bursts
system.mem_ctrl.perBankWrBursts::1                  0                       # Per bank write bursts
system.mem_ctrl.perBankWrBursts::2                294                       # Per bank write bursts
system.mem_ctrl.perBankWrBursts::3                222                       # Per bank write bursts
system.mem_ctrl.perBankWrBursts::4                108                       # Per bank write bursts
system.mem_ctrl.perBankWrBursts::5                 99                       # Per bank write bursts
system.mem_ctrl.perBankWrBursts::6                378                       # Per bank write bursts
system.mem_ctrl.perBankWrBursts::7                 61                       # Per bank write bursts
system.mem_ctrl.perBankWrBursts::8                 54                       # Per bank write bursts
system.mem_ctrl.perBankWrBursts::9                433                       # Per bank write bursts
system.mem_ctrl.perBankWrBursts::10                25                       # Per bank write bursts
system.mem_ctrl.perBankWrBursts::11                45                       # Per bank write bursts
system.mem_ctrl.perBankWrBursts::12                18                       # Per bank write bursts
system.mem_ctrl.perBankWrBursts::13                52                       # Per bank write bursts
system.mem_ctrl.perBankWrBursts::14               109                       # Per bank write bursts
system.mem_ctrl.perBankWrBursts::15               103                       # Per bank write bursts
system.mem_ctrl.numRdRetry                          0                       # Number of times read queue was full causing retry
system.mem_ctrl.numWrRetry                          0                       # Number of times write queue was full causing retry
system.mem_ctrl.totGap                      161593000                       # Total gap between requests
system.mem_ctrl.readPktSize::0                      0                       # Read request sizes (log2)
system.mem_ctrl.readPktSize::1                      0                       # Read request sizes (log2)
system.mem_ctrl.readPktSize::2                      0                       # Read request sizes (log2)
system.mem_ctrl.readPktSize::3                      0                       # Read request sizes (log2)
system.mem_ctrl.readPktSize::4                      0                       # Read request sizes (log2)
system.mem_ctrl.readPktSize::5                      0                       # Read request sizes (log2)
system.mem_ctrl.readPktSize::6                   2706                       # Read request sizes (log2)
system.mem_ctrl.writePktSize::0                     0                       # Write request sizes (log2)
system.mem_ctrl.writePktSize::1                     0                       # Write request sizes (log2)
system.mem_ctrl.writePktSize::2                     0                       # Write request sizes (log2)
system.mem_ctrl.writePktSize::3                     0                       # Write request sizes (log2)
system.mem_ctrl.writePktSize::4                     0                       # Write request sizes (log2)
system.mem_ctrl.writePktSize::5                     0                       # Write request sizes (log2)
system.mem_ctrl.writePktSize::6                  2690                       # Write request sizes (log2)
system.mem_ctrl.rdQLenPdf::0                     1850                       # What read queue length does an incoming req see
system.mem_ctrl.rdQLenPdf::1                        0                       # What read queue length does an incoming req see
system.mem_ctrl.rdQLenPdf::2                        0                       # What read queue length does an incoming req see
system.mem_ctrl.rdQLenPdf::3                        0                       # What read queue length does an incoming req see
system.mem_ctrl.rdQLenPdf::4                        0                       # What read queue length does an incoming req see
system.mem_ctrl.rdQLenPdf::5                        0                       # What read queue length does an incoming req see
system.mem_ctrl.rdQLenPdf::6                        0                       # What read queue length does an incoming req see
system.mem_ctrl.rdQLenPdf::7                        0                       # What read queue length does an incoming req see
system.mem_ctrl.rdQLenPdf::8                        0                       # What read queue length does an incoming req see
system.mem_ctrl.rdQLenPdf::9                        0                       # What read queue length does an incoming req see
system.mem_ctrl.rdQLenPdf::10                       0                       # What read queue length does an incoming req see
system.mem_ctrl.rdQLenPdf::11                       0                       # What read queue length does an incoming req see
system.mem_ctrl.rdQLenPdf::12                       0                       # What read queue length does an incoming req see
system.mem_ctrl.rdQLenPdf::13                       0                       # What read queue length does an incoming req see
system.mem_ctrl.rdQLenPdf::14                       0                       # What read queue length does an incoming req see
system.mem_ctrl.rdQLenPdf::15                       0                       # What read queue length does an incoming req see
system.mem_ctrl.rdQLenPdf::16                       0                       # What read queue length does an incoming req see
system.mem_ctrl.rdQLenPdf::17                       0                       # What read queue length does an incoming req see
system.mem_ctrl.rdQLenPdf::18                       0                       # What read queue length does an incoming req see
system.mem_ctrl.rdQLenPdf::19                       0                       # What read queue length does an incoming req see
system.mem_ctrl.rdQLenPdf::20                       0                       # What read queue length does an incoming req see
system.mem_ctrl.rdQLenPdf::21                       0                       # What read queue length does an incoming req see
system.mem_ctrl.rdQLenPdf::22                       0                       # What read queue length does an incoming req see
system.mem_ctrl.rdQLenPdf::23                       0                       # What read queue length does an incoming req see
system.mem_ctrl.rdQLenPdf::24                       0                       # What read queue length does an incoming req see
system.mem_ctrl.rdQLenPdf::25                       0                       # What read queue length does an incoming req see
system.mem_ctrl.rdQLenPdf::26                       0                       # What read queue length does an incoming req see
system.mem_ctrl.rdQLenPdf::27                       0                       # What read queue length does an incoming req see
system.mem_ctrl.rdQLenPdf::28                       0                       # What read queue length does an incoming req see
system.mem_ctrl.rdQLenPdf::29                       0                       # What read queue length does an incoming req see
system.mem_ctrl.rdQLenPdf::30                       0                       # What read queue length does an incoming req see
system.mem_ctrl.rdQLenPdf::31                       0                       # What read queue length does an incoming req see
system.mem_ctrl.wrQLenPdf::0                        1                       # What write queue length does an incoming req see
system.mem_ctrl.wrQLenPdf::1                        1                       # What write queue length does an incoming req see
system.mem_ctrl.wrQLenPdf::2                        1                       # What write queue length does an incoming req see
system.mem_ctrl.wrQLenPdf::3                        1                       # What write queue length does an incoming req see
system.mem_ctrl.wrQLenPdf::4                        1                       # What write queue length does an incoming req see
system.mem_ctrl.wrQLenPdf::5                        1                       # What write queue length does an incoming req see
system.mem_ctrl.wrQLenPdf::6                        1                       # What write queue length does an incoming req see
system.mem_ctrl.wrQLenPdf::7                        1                       # What write queue length does an incoming req see
system.mem_ctrl.wrQLenPdf::8                        1                       # What write queue length does an incoming req see
system.mem_ctrl.wrQLenPdf::9                        1                       # What write queue length does an incoming req see
system.mem_ctrl.wrQLenPdf::10                       1                       # What write queue length does an incoming req see
system.mem_ctrl.wrQLenPdf::11                       1                       # What write queue length does an incoming req see
system.mem_ctrl.wrQLenPdf::12                       1                       # What write queue length does an incoming req see
system.mem_ctrl.wrQLenPdf::13                       1                       # What write queue length does an incoming req see
system.mem_ctrl.wrQLenPdf::14                       1                       # What write queue length does an incoming req see
system.mem_ctrl.wrQLenPdf::15                       7                       # What write queue length does an incoming req see
system.mem_ctrl.wrQLenPdf::16                       7                       # What write queue length does an incoming req see
system.mem_ctrl.wrQLenPdf::17                     110                       # What write queue length does an incoming req see
system.mem_ctrl.wrQLenPdf::18                     130                       # What write queue length does an incoming req see
system.mem_ctrl.wrQLenPdf::19                     133                       # What write queue length does an incoming req see
system.mem_ctrl.wrQLenPdf::20                     132                       # What write queue length does an incoming req see
system.mem_ctrl.wrQLenPdf::21                     131                       # What write queue length does an incoming req see
system.mem_ctrl.wrQLenPdf::22                     132                       # What write queue length does an incoming req see
system.mem_ctrl.wrQLenPdf::23                     151                       # What write queue length does an incoming req see
system.mem_ctrl.wrQLenPdf::24                     133                       # What write queue length does an incoming req see
system.mem_ctrl.wrQLenPdf::25                     129                       # What write queue length does an incoming req see
system.mem_ctrl.wrQLenPdf::26                     129                       # What write queue length does an incoming req see
system.mem_ctrl.wrQLenPdf::27                     129                       # What write queue length does an incoming req see
system.mem_ctrl.wrQLenPdf::28                     129                       # What write queue length does an incoming req see
system.mem_ctrl.wrQLenPdf::29                     129                       # What write queue length does an incoming req see
system.mem_ctrl.wrQLenPdf::30                     129                       # What write queue length does an incoming req see
system.mem_ctrl.wrQLenPdf::31                     129                       # What write queue length does an incoming req see
system.mem_ctrl.wrQLenPdf::32                     129                       # What write queue length does an incoming req see
system.mem_ctrl.wrQLenPdf::33                       0                       # What write queue length does an incoming req see
system.mem_ctrl.wrQLenPdf::34                       0                       # What write queue length does an incoming req see
system.mem_ctrl.wrQLenPdf::35                       0                       # What write queue length does an incoming req see
system.mem_ctrl.wrQLenPdf::36                       0                       # What write queue length does an incoming req see
system.mem_ctrl.wrQLenPdf::37                       0                       # What write queue length does an incoming req see
system.mem_ctrl.wrQLenPdf::38                       0                       # What write queue length does an incoming req see
system.mem_ctrl.wrQLenPdf::39                       0                       # What write queue length does an incoming req see
system.mem_ctrl.wrQLenPdf::40                       0                       # What write queue length does an incoming req see
system.mem_ctrl.wrQLenPdf::41                       0                       # What write queue length does an incoming req see
system.mem_ctrl.wrQLenPdf::42                       0                       # What write queue length does an incoming req see
system.mem_ctrl.wrQLenPdf::43                       0                       # What write queue length does an incoming req see
system.mem_ctrl.wrQLenPdf::44                       0                       # What write queue length does an incoming req see
system.mem_ctrl.wrQLenPdf::45                       0                       # What write queue length does an incoming req see
system.mem_ctrl.wrQLenPdf::46                       0                       # What write queue length does an incoming req see
system.mem_ctrl.wrQLenPdf::47                       0                       # What write queue length does an incoming req see
system.mem_ctrl.wrQLenPdf::48                       0                       # What write queue length does an incoming req see
system.mem_ctrl.wrQLenPdf::49                       0                       # What write queue length does an incoming req see
system.mem_ctrl.wrQLenPdf::50                       0                       # What write queue length does an incoming req see
system.mem_ctrl.wrQLenPdf::51                       0                       # What write queue length does an incoming req see
system.mem_ctrl.wrQLenPdf::52                       0                       # What write queue length does an incoming req see
system.mem_ctrl.wrQLenPdf::53                       0                       # What write queue length does an incoming req see
system.mem_ctrl.wrQLenPdf::54                       0                       # What write queue length does an incoming req see
system.mem_ctrl.wrQLenPdf::55                       0                       # What write queue length does an incoming req see
system.mem_ctrl.wrQLenPdf::56                       0                       # What write queue length does an incoming req see
system.mem_ctrl.wrQLenPdf::57                       0                       # What write queue length does an incoming req see
system.mem_ctrl.wrQLenPdf::58                       0                       # What write queue length does an incoming req see
system.mem_ctrl.wrQLenPdf::59                       0                       # What write queue length does an incoming req see
system.mem_ctrl.wrQLenPdf::60                       0                       # What write queue length does an incoming req see
system.mem_ctrl.wrQLenPdf::61                       0                       # What write queue length does an incoming req see
system.mem_ctrl.wrQLenPdf::62                       0                       # What write queue length does an incoming req see
system.mem_ctrl.wrQLenPdf::63                       0                       # What write queue length does an incoming req see
system.mem_ctrl.bytesPerActivate::samples          587                       # Bytes accessed per row activation
system.mem_ctrl.bytesPerActivate::mean     422.051107                       # Bytes accessed per row activation
system.mem_ctrl.bytesPerActivate::gmean    281.601706                       # Bytes accessed per row activation
system.mem_ctrl.bytesPerActivate::stdev    344.949584                       # Bytes accessed per row activation
system.mem_ctrl.bytesPerActivate::0-127           104     17.72%     17.72% # Bytes accessed per row activation
system.mem_ctrl.bytesPerActivate::128-255          140     23.85%     41.57% # Bytes accessed per row activation
system.mem_ctrl.bytesPerActivate::256-383           76     12.95%     54.51% # Bytes accessed per row activation
system.mem_ctrl.bytesPerActivate::384-511           61     10.39%     64.91% # Bytes accessed per row activation
system.mem_ctrl.bytesPerActivate::512-639           45      7.67%     72.57% # Bytes accessed per row activation
system.mem_ctrl.bytesPerActivate::640-767           27      4.60%     77.17% # Bytes accessed per row activation
system.mem_ctrl.bytesPerActivate::768-895           18      3.07%     80.24% # Bytes accessed per row activation
system.mem_ctrl.bytesPerActivate::896-1023           20      3.41%     83.65% # Bytes accessed per row activation
system.mem_ctrl.bytesPerActivate::1024-1151           96     16.35%    100.00% # Bytes accessed per row activation
system.mem_ctrl.bytesPerActivate::total           587                       # Bytes accessed per row activation
system.mem_ctrl.rdPerTurnAround::samples          129                       # Reads before turning the bus around for writes
system.mem_ctrl.rdPerTurnAround::mean       14.271318                       # Reads before turning the bus around for writes
system.mem_ctrl.rdPerTurnAround::gmean      13.923371                       # Reads before turning the bus around for writes
system.mem_ctrl.rdPerTurnAround::stdev       3.680081                       # Reads before turning the bus around for writes
system.mem_ctrl.rdPerTurnAround::8-9                6      4.65%      4.65% # Reads before turning the bus around for writes
system.mem_ctrl.rdPerTurnAround::10-11             12      9.30%     13.95% # Reads before turning the bus around for writes
system.mem_ctrl.rdPerTurnAround::12-13             36     27.91%     41.86% # Reads before turning the bus around for writes
system.mem_ctrl.rdPerTurnAround::14-15             41     31.78%     73.64% # Reads before turning the bus around for writes
system.mem_ctrl.rdPerTurnAround::16-17             24     18.60%     92.25% # Reads before turning the bus around for writes
system.mem_ctrl.rdPerTurnAround::18-19              5      3.88%     96.12% # Reads before turning the bus around for writes
system.mem_ctrl.rdPerTurnAround::20-21              3      2.33%     98.45% # Reads before turning the bus around for writes
system.mem_ctrl.rdPerTurnAround::22-23              1      0.78%     99.22% # Reads before turning the bus around for writes
system.mem_ctrl.rdPerTurnAround::44-45              1      0.78%    100.00% # Reads before turning the bus around for writes
system.mem_ctrl.rdPerTurnAround::total            129                       # Reads before turning the bus around for writes
system.mem_ctrl.wrPerTurnAround::samples          129                       # Writes before turning the bus around for reads
system.mem_ctrl.wrPerTurnAround::mean       16.209302                       # Writes before turning the bus around for reads
system.mem_ctrl.wrPerTurnAround::gmean      16.193636                       # Writes before turning the bus around for reads
system.mem_ctrl.wrPerTurnAround::stdev       0.756993                       # Writes before turning the bus around for reads
system.mem_ctrl.wrPerTurnAround::16               117     90.70%     90.70% # Writes before turning the bus around for reads
system.mem_ctrl.wrPerTurnAround::17                 5      3.88%     94.57% # Writes before turning the bus around for reads
system.mem_ctrl.wrPerTurnAround::18                 2      1.55%     96.12% # Writes before turning the bus around for reads
system.mem_ctrl.wrPerTurnAround::19                 2      1.55%     97.67% # Writes before turning the bus around for reads
system.mem_ctrl.wrPerTurnAround::20                 3      2.33%    100.00% # Writes before turning the bus around for reads
system.mem_ctrl.wrPerTurnAround::total            129                       # Writes before turning the bus around for reads
system.mem_ctrl.totQLat                      32353500                       # Total ticks spent queuing
system.mem_ctrl.totMemAccLat                 67041000                       # Total ticks spent from burst creation until serviced by the DRAM
system.mem_ctrl.totBusLat                     9250000                       # Total ticks spent in databus transfers
system.mem_ctrl.avgQLat                      17488.38                       # Average queueing delay per DRAM burst
system.mem_ctrl.avgBusLat                     5000.00                       # Average bus latency per DRAM burst
system.mem_ctrl.avgMemAccLat                 36238.38                       # Average memory access latency per DRAM burst
system.mem_ctrl.avgRdBW                        732.67                       # Average DRAM read bandwidth in MiByte/s
system.mem_ctrl.avgWrBW                        828.11                       # Average achieved write bandwidth in MiByte/s
system.mem_ctrl.avgRdBWSys                    1071.68                       # Average system read bandwidth in MiByte/s
system.mem_ctrl.avgWrBWSys                    1065.34                       # Average system write bandwidth in MiByte/s
system.mem_ctrl.peakBW                       12800.00                       # Theoretical peak bandwidth in MiByte/s
system.mem_ctrl.busUtil                         12.19                       # Data bus utilization in percentage
system.mem_ctrl.busUtilRead                      5.72                       # Data bus utilization in percentage for reads
system.mem_ctrl.busUtilWrite                     6.47                       # Data bus utilization in percentage for writes
system.mem_ctrl.avgRdQLen                        1.00                       # Average read queue length when enqueuing
system.mem_ctrl.avgWrQLen                       25.66                       # Average write queue length when enqueuing
system.mem_ctrl.readRowHits                      1413                       # Number of row buffer hits during reads
system.mem_ctrl.writeRowHits                     1929                       # Number of row buffer hits during writes
system.mem_ctrl.readRowHitRate                  76.38                       # Row buffer hit rate for reads
system.mem_ctrl.writeRowHitRate                 91.29                       # Row buffer hit rate for writes
system.mem_ctrl.avgGap                       29946.81                       # Average gap between requests
system.mem_ctrl.pageHitRate                     84.33                       # Row buffer hit rate, read and write combined
system.mem_ctrl_0.actEnergy                   2634660                       # Energy for activate commands per rank (pJ)
system.mem_ctrl_0.preEnergy                   1377585                       # Energy for precharge commands per rank (pJ)
system.mem_ctrl_0.readEnergy                  8368080                       # Energy for read commands per rank (pJ)
system.mem_ctrl_0.writeEnergy                 6535440                       # Energy for write commands per rank (pJ)
system.mem_ctrl_0.refreshEnergy          12292800.000000                       # Energy for refresh commands per rank (pJ)
system.mem_ctrl_0.actBackEnergy              26086050                       # Energy for active background per rank (pJ)
system.mem_ctrl_0.preBackEnergy                266880                       # Energy for precharge background per rank (pJ)
system.mem_ctrl_0.actPowerDownEnergy         46387170                       # Energy for active power-down per rank (pJ)
system.mem_ctrl_0.prePowerDownEnergy           757920                       # Energy for precharge power-down per rank (pJ)
system.mem_ctrl_0.selfRefreshEnergy                 0                       # Energy for self refresh per rank (pJ)
system.mem_ctrl_0.totalEnergy               104706585                       # Total energy per rank (pJ)
system.mem_ctrl_0.averagePower             647.931777                       # Core power per rank (mW)
system.mem_ctrl_0.totalIdleTime             103549750                       # Total Idle time Per DRAM Rank
system.mem_ctrl_0.memoryStateTime::IDLE        100750                       # Time in different power states
system.mem_ctrl_0.memoryStateTime::REF        5200000                       # Time in different power states
system.mem_ctrl_0.memoryStateTime::SREF             0                       # Time in different power states
system.mem_ctrl_0.memoryStateTime::PRE_PDN      1973000                       # Time in different power states
system.mem_ctrl_0.memoryStateTime::ACT       52579250                       # Time in different power states
system.mem_ctrl_0.memoryStateTime::ACT_PDN    101748000                       # Time in different power states
system.mem_ctrl_1.actEnergy                   1642200                       # Energy for activate commands per rank (pJ)
system.mem_ctrl_1.preEnergy                    850080                       # Energy for precharge commands per rank (pJ)
system.mem_ctrl_1.readEnergy                  4840920                       # Energy for read commands per rank (pJ)
system.mem_ctrl_1.writeEnergy                 4379580                       # Energy for write commands per rank (pJ)
system.mem_ctrl_1.refreshEnergy          12292800.000000                       # Energy for refresh commands per rank (pJ)
system.mem_ctrl_1.actBackEnergy              22646670                       # Energy for active background per rank (pJ)
system.mem_ctrl_1.preBackEnergy                418080                       # Energy for precharge background per rank (pJ)
system.mem_ctrl_1.actPowerDownEnergy         48597630                       # Energy for active power-down per rank (pJ)
system.mem_ctrl_1.prePowerDownEnergy          1641600                       # Energy for precharge power-down per rank (pJ)
system.mem_ctrl_1.selfRefreshEnergy                 0                       # Energy for self refresh per rank (pJ)
system.mem_ctrl_1.totalEnergy                97309560                       # Total energy per rank (pJ)
system.mem_ctrl_1.averagePower             602.158461                       # Core power per rank (mW)
system.mem_ctrl_1.totalIdleTime             110809250                       # Total Idle time Per DRAM Rank
system.mem_ctrl_1.memoryStateTime::IDLE        534000                       # Time in different power states
system.mem_ctrl_1.memoryStateTime::REF        5200000                       # Time in different power states
system.mem_ctrl_1.memoryStateTime::SREF             0                       # Time in different power states
system.mem_ctrl_1.memoryStateTime::PRE_PDN      4274250                       # Time in different power states
system.mem_ctrl_1.memoryStateTime::ACT       45020500                       # Time in different power states
system.mem_ctrl_1.memoryStateTime::ACT_PDN    106572250                       # Time in different power states
system.pwrStateResidencyTicks::UNDEFINED    161601000                       # Cumulative time (in ticks) in various power states
system.cache.pwrStateResidencyTicks::UNDEFINED    161601000                       # Cumulative time (in ticks) in various power states
system.cache.hits                               14528                       # Number of hits
system.cache.misses                              2706                       # Number of misses
system.cache.missLatency::samples                2706                       # Ticks for misses to the cache
system.cache.missLatency::mean           53350.702143                       # Ticks for misses to the cache
system.cache.missLatency::gmean          45391.143363                       # Ticks for misses to the cache
system.cache.missLatency::stdev          35789.331136                       # Ticks for misses to the cache
system.cache.missLatency::0-32767                 856     31.63%     31.63% # Ticks for misses to the cache
system.cache.missLatency::32768-65535            1367     50.52%     82.15% # Ticks for misses to the cache
system.cache.missLatency::65536-98303             344     12.71%     94.86% # Ticks for misses to the cache
system.cache.missLatency::98304-131071             36      1.33%     96.19% # Ticks for misses to the cache
system.cache.missLatency::131072-163839            70      2.59%     98.78% # Ticks for misses to the cache
system.cache.missLatency::163840-196607            13      0.48%     99.26% # Ticks for misses to the cache
system.cache.missLatency::196608-229375             0      0.00%     99.26% # Ticks for misses to the cache
system.cache.missLatency::229376-262143             2      0.07%     99.33% # Ticks for misses to the cache
system.cache.missLatency::262144-294911             4      0.15%     99.48% # Ticks for misses to the cache
system.cache.missLatency::294912-327679             5      0.18%     99.67% # Ticks for misses to the cache
system.cache.missLatency::327680-360447             8      0.30%     99.96% # Ticks for misses to the cache
system.cache.missLatency::360448-393215             0      0.00%     99.96% # Ticks for misses to the cache
system.cache.missLatency::393216-425983             1      0.04%    100.00% # Ticks for misses to the cache
system.cache.missLatency::425984-458751             0      0.00%    100.00% # Ticks for misses to the cache
system.cache.missLatency::458752-491519             0      0.00%    100.00% # Ticks for misses to the cache
system.cache.missLatency::491520-524287             0      0.00%    100.00% # Ticks for misses to the cache
system.cache.missLatency::total                  2706                       # Ticks for misses to the cache
system.cache.hitRatio                        0.842985                       # The ratio of hits to the total accesses to the cache
system.cpu.dtb.fetch_hits                           0                       # ITB hits
system.cpu.dtb.fetch_misses                         0                       # ITB misses
system.cpu.dtb.fetch_acv                            0                       # ITB acv
system.cpu.dtb.fetch_accesses                       0                       # ITB accesses
system.cpu.dtb.read_hits                         2632                       # DTB read hits
system.cpu.dtb.read_misses                         10                       # DTB read misses
system.cpu.dtb.read_acv                             0                       # DTB read access violations
system.cpu.dtb.read_accesses                     2642                       # DTB read accesses
system.cpu.dtb.write_hits                        1882                       # DTB write hits
system.cpu.dtb.write_misses                         2                       # DTB write misses
system.cpu.dtb.write_acv                            0                       # DTB write access violations
system.cpu.dtb.write_accesses                    1884                       # DTB write accesses
system.cpu.dtb.data_hits                         4514                       # DTB hits
system.cpu.dtb.data_misses                         12                       # DTB misses
system.cpu.dtb.data_acv                             0                       # DTB access violations
system.cpu.dtb.data_accesses                     4526                       # DTB accesses
system.cpu.itb.fetch_hits                       12721                       # ITB hits
system.cpu.itb.fetch_misses                        24                       # ITB misses
system.cpu.itb.fetch_acv                            0                       # ITB acv
system.cpu.itb.fetch_accesses                   12745                       # ITB accesses
system.cpu.itb.read_hits                            0                       # DTB read hits
system.cpu.itb.read_misses                          0                       # DTB read misses
system.cpu.itb.read_acv                             0                       # DTB read access violations
system.cpu.itb.read_accesses                        0                       # DTB read accesses
system.cpu.itb.write_hits                           0                       # DTB write hits
system.cpu.itb.write_misses                         0                       # DTB write misses
system.cpu.itb.write_acv                            0                       # DTB write access violations
system.cpu.itb.write_accesses                       0                       # DTB write accesses
system.cpu.itb.data_hits                            0                       # DTB hits
system.cpu.itb.data_misses                          0                       # DTB misses
system.cpu.itb.data_acv                             0                       # DTB access violations
system.cpu.itb.data_accesses                        0                       # DTB accesses
system.cpu.workload.numSyscalls                    11                       # Number of system calls
system.cpu.pwrStateResidencyTicks::ON       161601000                       # Cumulative time (in ticks) in various power states
system.cpu.numCycles                           161601                       # number of cpu cycles simulated
system.cpu.numWorkItemsStarted                      0                       # number of work items this cpu started
system.cpu.numWorkItemsCompleted                    0                       # number of work items this cpu completed
system.cpu.committedInsts                       12708                       # Number of instructions committed
system.cpu.committedOps                         12708                       # Number of ops (including micro ops) committed
system.cpu.num_int_alu_accesses                 12587                       # Number of integer alu accesses
system.cpu.num_fp_alu_accesses                     70                       # Number of float alu accesses
system.cpu.num_vec_alu_accesses                     0                       # Number of vector alu accesses
system.cpu.num_func_calls                         405                       # number of times a function call or return occured
system.cpu.num_conditional_control_insts         1337                       # number of instructions that are conditional controls
system.cpu.num_int_insts                        12587                       # number of integer instructions
system.cpu.num_fp_insts                            70                       # number of float instructions
system.cpu.num_vec_insts                            0                       # number of vector instructions
system.cpu.num_int_register_reads               17336                       # number of times the integer registers were read
system.cpu.num_int_register_writes               9137                       # number of times the integer registers were written
system.cpu.num_fp_register_reads                   68                       # number of times the floating registers were read
system.cpu.num_fp_register_writes                   2                       # number of times the floating registers were written
system.cpu.num_vec_register_reads                   0                       # number of times the vector registers were read
system.cpu.num_vec_register_writes                  0                       # number of times the vector registers were written
system.cpu.num_mem_refs                          4526                       # number of memory refs
system.cpu.num_load_insts                        2642                       # Number of load instructions
system.cpu.num_store_insts                       1884                       # Number of store instructions
system.cpu.num_idle_cycles                          0                       # Number of idle cycles
system.cpu.num_busy_cycles                     161601                       # Number of busy cycles
system.cpu.not_idle_fraction                        1                       # Percentage of non-idle cycles
system.cpu.idle_fraction                            0                       # Percentage of idle cycles
system.cpu.Branches                              1862                       # Number of branches fetched
system.cpu.op_class::No_OpClass                    22      0.17%      0.17% # Class of executed instruction
system.cpu.op_class::IntAlu                      8131     63.92%     64.10% # Class of executed instruction
system.cpu.op_class::IntMult                       39      0.31%     64.40% # Class of executed instruction
system.cpu.op_class::IntDiv                         0      0.00%     64.40% # Class of executed instruction
system.cpu.op_class::FloatAdd                       2      0.02%     64.42% # Class of executed instruction
system.cpu.op_class::FloatCmp                       0      0.00%     64.42% # Class of executed instruction
system.cpu.op_class::FloatCvt                       0      0.00%     64.42% # Class of executed instruction
system.cpu.op_class::FloatMult                      0      0.00%     64.42% # Class of executed instruction
system.cpu.op_class::FloatMultAcc                   0      0.00%     64.42% # Class of executed instruction
system.cpu.op_class::FloatDiv                       0      0.00%     64.42% # Class of executed instruction
system.cpu.op_class::FloatMisc                      0      0.00%     64.42% # Class of executed instruction
system.cpu.op_class::FloatSqrt                      0      0.00%     64.42% # Class of executed instruction
system.cpu.op_class::SimdAdd                        0      0.00%     64.42% # Class of executed instruction
system.cpu.op_class::SimdAddAcc                     0      0.00%     64.42% # Class of executed instruction
system.cpu.op_class::SimdAlu                        0      0.00%     64.42% # Class of executed instruction
system.cpu.op_class::SimdCmp                        0      0.00%     64.42% # Class of executed instruction
system.cpu.op_class::SimdCvt                        0      0.00%     64.42% # Class of executed instruction
system.cpu.op_class::SimdMisc                       0      0.00%     64.42% # Class of executed instruction
system.cpu.op_class::SimdMult                       0      0.00%     64.42% # Class of executed instruction
system.cpu.op_class::SimdMultAcc                    0      0.00%     64.42% # Class of executed instruction
system.cpu.op_class::SimdShift                      0      0.00%     64.42% # Class of executed instruction
system.cpu.op_class::SimdShiftAcc                   0      0.00%     64.42% # Class of executed instruction
system.cpu.op_class::SimdSqrt                       0      0.00%     64.42% # Class of executed instruction
system.cpu.op_class::SimdFloatAdd                   0      0.00%     64.42% # Class of executed instruction
system.cpu.op_class::SimdFloatAlu                   0      0.00%     64.42% # Class of executed instruction
system.cpu.op_class::SimdFloatCmp                   0      0.00%     64.42% # Class of executed instruction
system.cpu.op_class::SimdFloatCvt                   0      0.00%     64.42% # Class of executed instruction
system.cpu.op_class::SimdFloatDiv                   0      0.00%     64.42% # Class of executed instruction
system.cpu.op_class::SimdFloatMisc                  0      0.00%     64.42% # Class of executed instruction
system.cpu.op_class::SimdFloatMult                  0      0.00%     64.42% # Class of executed instruction
system.cpu.op_class::SimdFloatMultAcc               0      0.00%     64.42% # Class of executed instruction
system.cpu.op_class::SimdFloatSqrt                  0      0.00%     64.42% # Class of executed instruction
system.cpu.op_class::MemRead                     2641     20.76%     85.18% # Class of executed instruction
system.cpu.op_class::MemWrite                    1817     14.28%     99.47% # Class of executed instruction
system.cpu.op_class::FloatMemRead                   1      0.01%     99.47% # Class of executed instruction
system.cpu.op_class::FloatMemWrite                 67      0.53%    100.00% # Class of executed instruction
system.cpu.op_class::IprAccess                      0      0.00%    100.00% # Class of executed instruction
system.cpu.op_class::InstPrefetch                   0      0.00%    100.00% # Class of executed instruction
system.cpu.op_class::total                      12720                       # Class of executed instruction
system.membus.snoop_filter.tot_requests             0                       # Total number of requests made to the snoop filter.
system.membus.snoop_filter.hit_single_requests            0                       # Number of requests hitting in the snoop filter with a single holder of the requested data.
system.membus.snoop_filter.hit_multi_requests            0                       # Number of requests hitting in the snoop filter with multiple (>1) holders of the requested data.
system.membus.snoop_filter.tot_snoops               0                       # Total number of snoops made to the snoop filter.
system.membus.snoop_filter.hit_single_snoops            0                       # Number of snoops hitting in the snoop filter with a single holder of the requested data.
system.membus.snoop_filter.hit_multi_snoops            0                       # Number of snoops hitting in the snoop filter with multiple (>1) holders of the requested data.
system.membus.pwrStateResidencyTicks::UNDEFINED    161601000                       # Cumulative time (in ticks) in various power states
system.membus.trans_dist::ReadReq                2706                       # Transaction distribution
system.membus.trans_dist::ReadResp               2706                       # Transaction distribution
system.membus.trans_dist::WritebackDirty         2690                       # Transaction distribution
system.membus.pkt_count_system.cache.mem_side::system.mem_ctrl.port         8102                       # Packet count per connected master and slave (bytes)
system.membus.pkt_count::total                   8102                       # Packet count per connected master and slave (bytes)
system.membus.pkt_size_system.cache.mem_side::system.mem_ctrl.port       345344                       # Cumulative packet size per connected master and slave (bytes)
system.membus.pkt_size::total                  345344                       # Cumulative packet size per connected master and slave (bytes)
system.membus.snoops                                0                       # Total snoops (count)
system.membus.snoopTraffic                          0                       # Total snoop traffic (bytes)
system.membus.snoop_fanout::samples              2706                       # Request fanout histogram
system.membus.snoop_fanout::mean                    0                       # Request fanout histogram
system.membus.snoop_fanout::stdev                   0                       # Request fanout histogram
system.membus.snoop_fanout::underflows              0      0.00%      0.00% # Request fanout histogram
system.membus.snoop_fanout::0                    2706    100.00%    100.00% # Request fanout histogram
system.membus.snoop_fanout::overflows               0      0.00%    100.00% # Request fanout histogram
system.membus.snoop_fanout::min_value               0                       # Request fanout histogram
system.membus.snoop_fanout::max_value               0                       # Request fanout histogram
system.membus.snoop_fanout::total                2706                       # Request fanout histogram
system.membus.reqLayer0.occupancy            16156000                       # Layer occupancy (ticks)
system.membus.reqLayer0.utilization              10.0                       # Layer utilization (%)
system.membus.respLayer0.occupancy           14122000                       # Layer occupancy (ticks)
system.membus.respLayer0.utilization              8.7                       # Layer utilization (%)

---------- End Simulation Statistics   ----------
