
---------- Begin Simulation Statistics ----------
sim_seconds                                  0.000215                       # Number of seconds simulated
sim_ticks                                   215136000                       # Number of ticks simulated
final_tick                                  215136000                       # Number of ticks from beginning of simulation (restored from checkpoints and never reset)
sim_freq                                 1000000000000                       # Frequency of simulated ticks
host_inst_rate                                 347359                       # Simulator instruction rate (inst/s)
host_op_rate                                   347043                       # Simulator op (including micro ops) rate (op/s)
host_tick_rate                             8508780256                       # Simulator tick rate (ticks/s)
host_mem_usage                                8484344                       # Number of bytes of host memory used
host_seconds                                     0.03                       # Real time elapsed on the host
sim_insts                                        8767                       # Number of instructions simulated
sim_ops                                          8767                       # Number of ops (including micro ops) simulated
system.clk_domain.voltage_domain.voltage            1                       # Voltage in Volts
system.clk_domain.clock                          1000                       # Clock period in ticks
system.mem_ctrl.pwrStateResidencyTicks::UNDEFINED    215136000                       # Cumulative time (in ticks) in various power states
system.mem_ctrl.bytes_read::cpu.inst           227136                       # Number of bytes read from this memory
system.mem_ctrl.bytes_read::cpu.data           174848                       # Number of bytes read from this memory
system.mem_ctrl.bytes_read::total              401984                       # Number of bytes read from this memory
system.mem_ctrl.bytes_inst_read::cpu.inst       227136                       # Number of instructions bytes read from this memory
system.mem_ctrl.bytes_inst_read::total         227136                       # Number of instructions bytes read from this memory
system.mem_ctrl.bytes_written::writebacks       400960                       # Number of bytes written to this memory
system.mem_ctrl.bytes_written::total           400960                       # Number of bytes written to this memory
system.mem_ctrl.num_reads::cpu.inst              3549                       # Number of read requests responded to by this memory
system.mem_ctrl.num_reads::cpu.data              2732                       # Number of read requests responded to by this memory
system.mem_ctrl.num_reads::total                 6281                       # Number of read requests responded to by this memory
system.mem_ctrl.num_writes::writebacks           6265                       # Number of write requests responded to by this memory
system.mem_ctrl.num_writes::total                6265                       # Number of write requests responded to by this memory
system.mem_ctrl.bw_read::cpu.inst          1055778670                       # Total read bandwidth from this memory (bytes/s)
system.mem_ctrl.bw_read::cpu.data           812732411                       # Total read bandwidth from this memory (bytes/s)
system.mem_ctrl.bw_read::total             1868511081                       # Total read bandwidth from this memory (bytes/s)
system.mem_ctrl.bw_inst_read::cpu.inst     1055778670                       # Instruction read bandwidth from this memory (bytes/s)
system.mem_ctrl.bw_inst_read::total        1055778670                       # Instruction read bandwidth from this memory (bytes/s)
system.mem_ctrl.bw_write::writebacks       1863751302                       # Write bandwidth from this memory (bytes/s)
system.mem_ctrl.bw_write::total            1863751302                       # Write bandwidth from this memory (bytes/s)
system.mem_ctrl.bw_total::writebacks       1863751302                       # Total bandwidth to/from this memory (bytes/s)
system.mem_ctrl.bw_total::cpu.inst         1055778670                       # Total bandwidth to/from this memory (bytes/s)
system.mem_ctrl.bw_total::cpu.data          812732411                       # Total bandwidth to/from this memory (bytes/s)
system.mem_ctrl.bw_total::total            3732262383                       # Total bandwidth to/from this memory (bytes/s)
system.mem_ctrl.readReqs                         6281                       # Number of read requests accepted
system.mem_ctrl.writeReqs                        6265                       # Number of write requests accepted
system.mem_ctrl.readBursts                       6281                       # Number of DRAM read bursts, including those serviced by the write queue
system.mem_ctrl.writeBursts                      6265                       # Number of DRAM write bursts, including those merged in the write queue
system.mem_ctrl.bytesReadDRAM                   78208                       # Total number of bytes read from DRAM
system.mem_ctrl.bytesReadWrQ                   323776                       # Total number of bytes read from write queue
system.mem_ctrl.bytesWritten                    78592                       # Total number of bytes written to DRAM
system.mem_ctrl.bytesReadSys                   401984                       # Total read bytes from the system interface side
system.mem_ctrl.bytesWrittenSys                400960                       # Total written bytes from the system interface side
system.mem_ctrl.servicedByWrQ                    5059                       # Number of DRAM read bursts serviced by the write queue
system.mem_ctrl.mergedWrBursts                   5005                       # Number of DRAM write bursts merged with an existing one
system.mem_ctrl.neitherReadNorWriteReqs             0                       # Number of requests that are neither read nor write
system.mem_ctrl.perBankRdBursts::0                 90                       # Per bank write bursts
system.mem_ctrl.perBankRdBursts::1                 23                       # Per bank write bursts
system.mem_ctrl.perBankRdBursts::2                244                       # Per bank write bursts
system.mem_ctrl.perBankRdBursts::3                193                       # Per bank write bursts
system.mem_ctrl.perBankRdBursts::4                115                       # Per bank write bursts
system.mem_ctrl.perBankRdBursts::5                 55                       # Per bank write bursts
system.mem_ctrl.perBankRdBursts::6                 31                       # Per bank write bursts
system.mem_ctrl.perBankRdBursts::7                 61                       # Per bank write bursts
system.mem_ctrl.perBankRdBursts::8                  3                       # Per bank write bursts
system.mem_ctrl.perBankRdBursts::9                169                       # Per bank write bursts
system.mem_ctrl.perBankRdBursts::10                12                       # Per bank write bursts
system.mem_ctrl.perBankRdBursts::11                28                       # Per bank write bursts
system.mem_ctrl.perBankRdBursts::12                 5                       # Per bank write bursts
system.mem_ctrl.perBankRdBursts::13                40                       # Per bank write bursts
system.mem_ctrl.perBankRdBursts::14                91                       # Per bank write bursts
system.mem_ctrl.perBankRdBursts::15                62                       # Per bank write bursts
system.mem_ctrl.perBankWrBursts::0                 89                       # Per bank write bursts
system.mem_ctrl.perBankWrBursts::1                 24                       # Per bank write bursts
system.mem_ctrl.perBankWrBursts::2                244                       # Per bank write bursts
system.mem_ctrl.perBankWrBursts::3                194                       # Per bank write bursts
system.mem_ctrl.perBankWrBursts::4                117                       # Per bank write bursts
system.mem_ctrl.perBankWrBursts::5                 57                       # Per bank write bursts
system.mem_ctrl.perBankWrBursts::6                 33                       # Per bank write bursts
system.mem_ctrl.perBankWrBursts::7                 65                       # Per bank write bursts
system.mem_ctrl.perBankWrBursts::8                  3                       # Per bank write bursts
system.mem_ctrl.perBankWrBursts::9                180                       # Per bank write bursts
system.mem_ctrl.perBankWrBursts::10                12                       # Per bank write bursts
system.mem_ctrl.perBankWrBursts::11                31                       # Per bank write bursts
system.mem_ctrl.perBankWrBursts::12                 5                       # Per bank write bursts
system.mem_ctrl.perBankWrBursts::13                36                       # Per bank write bursts
system.mem_ctrl.perBankWrBursts::14                82                       # Per bank write bursts
system.mem_ctrl.perBankWrBursts::15                56                       # Per bank write bursts
system.mem_ctrl.numRdRetry                          0                       # Number of times read queue was full causing retry
system.mem_ctrl.numWrRetry                          0                       # Number of times write queue was full causing retry
system.mem_ctrl.totGap                      215132000                       # Total gap between requests
system.mem_ctrl.readPktSize::0                      0                       # Read request sizes (log2)
system.mem_ctrl.readPktSize::1                      0                       # Read request sizes (log2)
system.mem_ctrl.readPktSize::2                      0                       # Read request sizes (log2)
system.mem_ctrl.readPktSize::3                      0                       # Read request sizes (log2)
system.mem_ctrl.readPktSize::4                      0                       # Read request sizes (log2)
system.mem_ctrl.readPktSize::5                      0                       # Read request sizes (log2)
system.mem_ctrl.readPktSize::6                   6281                       # Read request sizes (log2)
system.mem_ctrl.writePktSize::0                     0                       # Write request sizes (log2)
system.mem_ctrl.writePktSize::1                     0                       # Write request sizes (log2)
system.mem_ctrl.writePktSize::2                     0                       # Write request sizes (log2)
system.mem_ctrl.writePktSize::3                     0                       # Write request sizes (log2)
system.mem_ctrl.writePktSize::4                     0                       # Write request sizes (log2)
system.mem_ctrl.writePktSize::5                     0                       # Write request sizes (log2)
system.mem_ctrl.writePktSize::6                  6265                       # Write request sizes (log2)
system.mem_ctrl.rdQLenPdf::0                     1222                       # What read queue length does an incoming req see
system.mem_ctrl.rdQLenPdf::1                        0                       # What read queue length does an incoming req see
system.mem_ctrl.rdQLenPdf::2                        0                       # What read queue length does an incoming req see
system.mem_ctrl.rdQLenPdf::3                        0                       # What read queue length does an incoming req see
system.mem_ctrl.rdQLenPdf::4                        0                       # What read queue length does an incoming req see
system.mem_ctrl.rdQLenPdf::5                        0                       # What read queue length does an incoming req see
system.mem_ctrl.rdQLenPdf::6                        0                       # What read queue length does an incoming req see
system.mem_ctrl.rdQLenPdf::7                        0                       # What read queue length does an incoming req see
system.mem_ctrl.rdQLenPdf::8                        0                       # What read queue length does an incoming req see
system.mem_ctrl.rdQLenPdf::9                        0                       # What read queue length does an incoming req see
system.mem_ctrl.rdQLenPdf::10                       0                       # What read queue length does an incoming req see
system.mem_ctrl.rdQLenPdf::11                       0                       # What read queue length does an incoming req see
system.mem_ctrl.rdQLenPdf::12                       0                       # What read queue length does an incoming req see
system.mem_ctrl.rdQLenPdf::13                       0                       # What read queue length does an incoming req see
system.mem_ctrl.rdQLenPdf::14                       0                       # What read queue length does an incoming req see
system.mem_ctrl.rdQLenPdf::15                       0                       # What read queue length does an incoming req see
system.mem_ctrl.rdQLenPdf::16                       0                       # What read queue length does an incoming req see
system.mem_ctrl.rdQLenPdf::17                       0                       # What read queue length does an incoming req see
system.mem_ctrl.rdQLenPdf::18                       0                       # What read queue length does an incoming req see
system.mem_ctrl.rdQLenPdf::19                       0                       # What read queue length does an incoming req see
system.mem_ctrl.rdQLenPdf::20                       0                       # What read queue length does an incoming req see
system.mem_ctrl.rdQLenPdf::21                       0                       # What read queue length does an incoming req see
system.mem_ctrl.rdQLenPdf::22                       0                       # What read queue length does an incoming req see
system.mem_ctrl.rdQLenPdf::23                       0                       # What read queue length does an incoming req see
system.mem_ctrl.rdQLenPdf::24                       0                       # What read queue length does an incoming req see
system.mem_ctrl.rdQLenPdf::25                       0                       # What read queue length does an incoming req see
system.mem_ctrl.rdQLenPdf::26                       0                       # What read queue length does an incoming req see
system.mem_ctrl.rdQLenPdf::27                       0                       # What read queue length does an incoming req see
system.mem_ctrl.rdQLenPdf::28                       0                       # What read queue length does an incoming req see
system.mem_ctrl.rdQLenPdf::29                       0                       # What read queue length does an incoming req see
system.mem_ctrl.rdQLenPdf::30                       0                       # What read queue length does an incoming req see
system.mem_ctrl.rdQLenPdf::31                       0                       # What read queue length does an incoming req see
system.mem_ctrl.wrQLenPdf::0                        1                       # What write queue length does an incoming req see
system.mem_ctrl.wrQLenPdf::1                        1                       # What write queue length does an incoming req see
system.mem_ctrl.wrQLenPdf::2                        1                       # What write queue length does an incoming req see
system.mem_ctrl.wrQLenPdf::3                        1                       # What write queue length does an incoming req see
system.mem_ctrl.wrQLenPdf::4                        1                       # What write queue length does an incoming req see
system.mem_ctrl.wrQLenPdf::5                        1                       # What write queue length does an incoming req see
system.mem_ctrl.wrQLenPdf::6                        1                       # What write queue length does an incoming req see
system.mem_ctrl.wrQLenPdf::7                        1                       # What write queue length does an incoming req see
system.mem_ctrl.wrQLenPdf::8                        1                       # What write queue length does an incoming req see
system.mem_ctrl.wrQLenPdf::9                        1                       # What write queue length does an incoming req see
system.mem_ctrl.wrQLenPdf::10                       1                       # What write queue length does an incoming req see
system.mem_ctrl.wrQLenPdf::11                       1                       # What write queue length does an incoming req see
system.mem_ctrl.wrQLenPdf::12                       1                       # What write queue length does an incoming req see
system.mem_ctrl.wrQLenPdf::13                       1                       # What write queue length does an incoming req see
system.mem_ctrl.wrQLenPdf::14                       1                       # What write queue length does an incoming req see
system.mem_ctrl.wrQLenPdf::15                      23                       # What write queue length does an incoming req see
system.mem_ctrl.wrQLenPdf::16                      30                       # What write queue length does an incoming req see
system.mem_ctrl.wrQLenPdf::17                      65                       # What write queue length does an incoming req see
system.mem_ctrl.wrQLenPdf::18                      83                       # What write queue length does an incoming req see
system.mem_ctrl.wrQLenPdf::19                      77                       # What write queue length does an incoming req see
system.mem_ctrl.wrQLenPdf::20                      73                       # What write queue length does an incoming req see
system.mem_ctrl.wrQLenPdf::21                      73                       # What write queue length does an incoming req see
system.mem_ctrl.wrQLenPdf::22                      74                       # What write queue length does an incoming req see
system.mem_ctrl.wrQLenPdf::23                      84                       # What write queue length does an incoming req see
system.mem_ctrl.wrQLenPdf::24                      80                       # What write queue length does an incoming req see
system.mem_ctrl.wrQLenPdf::25                      73                       # What write queue length does an incoming req see
system.mem_ctrl.wrQLenPdf::26                      73                       # What write queue length does an incoming req see
system.mem_ctrl.wrQLenPdf::27                      73                       # What write queue length does an incoming req see
system.mem_ctrl.wrQLenPdf::28                      73                       # What write queue length does an incoming req see
system.mem_ctrl.wrQLenPdf::29                      73                       # What write queue length does an incoming req see
system.mem_ctrl.wrQLenPdf::30                      73                       # What write queue length does an incoming req see
system.mem_ctrl.wrQLenPdf::31                      73                       # What write queue length does an incoming req see
system.mem_ctrl.wrQLenPdf::32                      72                       # What write queue length does an incoming req see
system.mem_ctrl.wrQLenPdf::33                       0                       # What write queue length does an incoming req see
system.mem_ctrl.wrQLenPdf::34                       0                       # What write queue length does an incoming req see
system.mem_ctrl.wrQLenPdf::35                       0                       # What write queue length does an incoming req see
system.mem_ctrl.wrQLenPdf::36                       0                       # What write queue length does an incoming req see
system.mem_ctrl.wrQLenPdf::37                       0                       # What write queue length does an incoming req see
system.mem_ctrl.wrQLenPdf::38                       0                       # What write queue length does an incoming req see
system.mem_ctrl.wrQLenPdf::39                       0                       # What write queue length does an incoming req see
system.mem_ctrl.wrQLenPdf::40                       0                       # What write queue length does an incoming req see
system.mem_ctrl.wrQLenPdf::41                       0                       # What write queue length does an incoming req see
system.mem_ctrl.wrQLenPdf::42                       0                       # What write queue length does an incoming req see
system.mem_ctrl.wrQLenPdf::43                       0                       # What write queue length does an incoming req see
system.mem_ctrl.wrQLenPdf::44                       0                       # What write queue length does an incoming req see
system.mem_ctrl.wrQLenPdf::45                       0                       # What write queue length does an incoming req see
system.mem_ctrl.wrQLenPdf::46                       0                       # What write queue length does an incoming req see
system.mem_ctrl.wrQLenPdf::47                       0                       # What write queue length does an incoming req see
system.mem_ctrl.wrQLenPdf::48                       0                       # What write queue length does an incoming req see
system.mem_ctrl.wrQLenPdf::49                       0                       # What write queue length does an incoming req see
system.mem_ctrl.wrQLenPdf::50                       0                       # What write queue length does an incoming req see
system.mem_ctrl.wrQLenPdf::51                       0                       # What write queue length does an incoming req see
system.mem_ctrl.wrQLenPdf::52                       0                       # What write queue length does an incoming req see
system.mem_ctrl.wrQLenPdf::53                       0                       # What write queue length does an incoming req see
system.mem_ctrl.wrQLenPdf::54                       0                       # What write queue length does an incoming req see
system.mem_ctrl.wrQLenPdf::55                       0                       # What write queue length does an incoming req see
system.mem_ctrl.wrQLenPdf::56                       0                       # What write queue length does an incoming req see
system.mem_ctrl.wrQLenPdf::57                       0                       # What write queue length does an incoming req see
system.mem_ctrl.wrQLenPdf::58                       0                       # What write queue length does an incoming req see
system.mem_ctrl.wrQLenPdf::59                       0                       # What write queue length does an incoming req see
system.mem_ctrl.wrQLenPdf::60                       0                       # What write queue length does an incoming req see
system.mem_ctrl.wrQLenPdf::61                       0                       # What write queue length does an incoming req see
system.mem_ctrl.wrQLenPdf::62                       0                       # What write queue length does an incoming req see
system.mem_ctrl.wrQLenPdf::63                       0                       # What write queue length does an incoming req see
system.mem_ctrl.bytesPerActivate::samples          400                       # Bytes accessed per row activation
system.mem_ctrl.bytesPerActivate::mean     390.720000                       # Bytes accessed per row activation
system.mem_ctrl.bytesPerActivate::gmean    255.555322                       # Bytes accessed per row activation
system.mem_ctrl.bytesPerActivate::stdev    334.041256                       # Bytes accessed per row activation
system.mem_ctrl.bytesPerActivate::0-127            82     20.50%     20.50% # Bytes accessed per row activation
system.mem_ctrl.bytesPerActivate::128-255          101     25.25%     45.75% # Bytes accessed per row activation
system.mem_ctrl.bytesPerActivate::256-383           49     12.25%     58.00% # Bytes accessed per row activation
system.mem_ctrl.bytesPerActivate::384-511           35      8.75%     66.75% # Bytes accessed per row activation
system.mem_ctrl.bytesPerActivate::512-639           32      8.00%     74.75% # Bytes accessed per row activation
system.mem_ctrl.bytesPerActivate::640-767           26      6.50%     81.25% # Bytes accessed per row activation
system.mem_ctrl.bytesPerActivate::768-895           10      2.50%     83.75% # Bytes accessed per row activation
system.mem_ctrl.bytesPerActivate::896-1023           12      3.00%     86.75% # Bytes accessed per row activation
system.mem_ctrl.bytesPerActivate::1024-1151           53     13.25%    100.00% # Bytes accessed per row activation
system.mem_ctrl.bytesPerActivate::total           400                       # Bytes accessed per row activation
system.mem_ctrl.rdPerTurnAround::samples           72                       # Reads before turning the bus around for writes
system.mem_ctrl.rdPerTurnAround::mean       16.736111                       # Reads before turning the bus around for writes
system.mem_ctrl.rdPerTurnAround::gmean      16.486928                       # Reads before turning the bus around for writes
system.mem_ctrl.rdPerTurnAround::stdev       4.045492                       # Reads before turning the bus around for writes
system.mem_ctrl.rdPerTurnAround::14-15             22     30.56%     30.56% # Reads before turning the bus around for writes
system.mem_ctrl.rdPerTurnAround::16-17             33     45.83%     76.39% # Reads before turning the bus around for writes
system.mem_ctrl.rdPerTurnAround::18-19             16     22.22%     98.61% # Reads before turning the bus around for writes
system.mem_ctrl.rdPerTurnAround::48-49              1      1.39%    100.00% # Reads before turning the bus around for writes
system.mem_ctrl.rdPerTurnAround::total             72                       # Reads before turning the bus around for writes
system.mem_ctrl.wrPerTurnAround::samples           72                       # Writes before turning the bus around for reads
system.mem_ctrl.wrPerTurnAround::mean       17.055556                       # Writes before turning the bus around for reads
system.mem_ctrl.wrPerTurnAround::gmean      17.004987                       # Writes before turning the bus around for reads
system.mem_ctrl.wrPerTurnAround::stdev       1.351982                       # Writes before turning the bus around for reads
system.mem_ctrl.wrPerTurnAround::16                39     54.17%     54.17% # Writes before turning the bus around for reads
system.mem_ctrl.wrPerTurnAround::17                 9     12.50%     66.67% # Writes before turning the bus around for reads
system.mem_ctrl.wrPerTurnAround::18                 9     12.50%     79.17% # Writes before turning the bus around for reads
system.mem_ctrl.wrPerTurnAround::19                12     16.67%     95.83% # Writes before turning the bus around for reads
system.mem_ctrl.wrPerTurnAround::20                 2      2.78%     98.61% # Writes before turning the bus around for reads
system.mem_ctrl.wrPerTurnAround::21                 1      1.39%    100.00% # Writes before turning the bus around for reads
system.mem_ctrl.wrPerTurnAround::total             72                       # Writes before turning the bus around for reads
system.mem_ctrl.totQLat                      21490750                       # Total ticks spent queuing
system.mem_ctrl.totMemAccLat                 44403250                       # Total ticks spent from burst creation until serviced by the DRAM
system.mem_ctrl.totBusLat                     6110000                       # Total ticks spent in databus transfers
system.mem_ctrl.avgQLat                      17586.54                       # Average queueing delay per DRAM burst
system.mem_ctrl.avgBusLat                     5000.00                       # Average bus latency per DRAM burst
system.mem_ctrl.avgMemAccLat                 36336.54                       # Average memory access latency per DRAM burst
system.mem_ctrl.avgRdBW                        363.53                       # Average DRAM read bandwidth in MiByte/s
system.mem_ctrl.avgWrBW                        365.31                       # Average achieved write bandwidth in MiByte/s
system.mem_ctrl.avgRdBWSys                    1868.51                       # Average system read bandwidth in MiByte/s
system.mem_ctrl.avgWrBWSys                    1863.75                       # Average system write bandwidth in MiByte/s
system.mem_ctrl.peakBW                       12800.00                       # Theoretical peak bandwidth in MiByte/s
system.mem_ctrl.busUtil                          5.69                       # Data bus utilization in percentage
system.mem_ctrl.busUtilRead                      2.84                       # Data bus utilization in percentage for reads
system.mem_ctrl.busUtilWrite                     2.85                       # Data bus utilization in percentage for writes
system.mem_ctrl.avgRdQLen                        1.00                       # Average read queue length when enqueuing
system.mem_ctrl.avgWrQLen                       25.34                       # Average write queue length when enqueuing
system.mem_ctrl.readRowHits                       889                       # Number of row buffer hits during reads
system.mem_ctrl.writeRowHits                     1155                       # Number of row buffer hits during writes
system.mem_ctrl.readRowHitRate                  72.75                       # Row buffer hit rate for reads
system.mem_ctrl.writeRowHitRate                 91.67                       # Row buffer hit rate for writes
system.mem_ctrl.avgGap                       17147.46                       # Average gap between requests
system.mem_ctrl.pageHitRate                     82.35                       # Row buffer hit rate, read and write combined
system.mem_ctrl_0.actEnergy                   2120580                       # Energy for activate commands per rank (pJ)
system.mem_ctrl_0.preEnergy                   1115730                       # Energy for precharge commands per rank (pJ)
system.mem_ctrl_0.readEnergy                  5797680                       # Energy for read commands per rank (pJ)
system.mem_ctrl_0.writeEnergy                 4296060                       # Energy for write commands per rank (pJ)
system.mem_ctrl_0.refreshEnergy          17209920.000000                       # Energy for refresh commands per rank (pJ)
system.mem_ctrl_0.actBackEnergy              21353340                       # Energy for active background per rank (pJ)
system.mem_ctrl_0.preBackEnergy                467520                       # Energy for precharge background per rank (pJ)
system.mem_ctrl_0.actPowerDownEnergy         69323970                       # Energy for active power-down per rank (pJ)
system.mem_ctrl_0.prePowerDownEnergy          5049600                       # Energy for precharge power-down per rank (pJ)
system.mem_ctrl_0.selfRefreshEnergy           1011840                       # Energy for self refresh per rank (pJ)
system.mem_ctrl_0.totalEnergy               127746240                       # Total energy per rank (pJ)
system.mem_ctrl_0.averagePower             593.792260                       # Core power per rank (mW)
system.mem_ctrl_0.totalIdleTime             166897500                       # Total Idle time Per DRAM Rank
system.mem_ctrl_0.memoryStateTime::IDLE        415000                       # Time in different power states
system.mem_ctrl_0.memoryStateTime::REF        7286000                       # Time in different power states
system.mem_ctrl_0.memoryStateTime::SREF       1915250                       # Time in different power states
system.mem_ctrl_0.memoryStateTime::PRE_PDN     13148000                       # Time in different power states
system.mem_ctrl_0.memoryStateTime::ACT       40354000                       # Time in different power states
system.mem_ctrl_0.memoryStateTime::ACT_PDN    152017750                       # Time in different power states
system.mem_ctrl_1.actEnergy                    778260                       # Energy for activate commands per rank (pJ)
system.mem_ctrl_1.preEnergy                    402270                       # Energy for precharge commands per rank (pJ)
system.mem_ctrl_1.readEnergy                  2927400                       # Energy for read commands per rank (pJ)
system.mem_ctrl_1.writeEnergy                 2114100                       # Energy for write commands per rank (pJ)
system.mem_ctrl_1.refreshEnergy          17209920.000000                       # Energy for refresh commands per rank (pJ)
system.mem_ctrl_1.actBackEnergy              15347820                       # Energy for active background per rank (pJ)
system.mem_ctrl_1.preBackEnergy                698400                       # Energy for precharge background per rank (pJ)
system.mem_ctrl_1.actPowerDownEnergy         64974870                       # Energy for active power-down per rank (pJ)
system.mem_ctrl_1.prePowerDownEnergy         10463520                       # Energy for precharge power-down per rank (pJ)
system.mem_ctrl_1.selfRefreshEnergy           3485880                       # Energy for self refresh per rank (pJ)
system.mem_ctrl_1.totalEnergy               118402440                       # Total energy per rank (pJ)
system.mem_ctrl_1.averagePower             550.360248                       # Core power per rank (mW)
system.mem_ctrl_1.totalIdleTime             179119000                       # Total Idle time Per DRAM Rank
system.mem_ctrl_1.memoryStateTime::IDLE       1086000                       # Time in different power states
system.mem_ctrl_1.memoryStateTime::REF        7292000                       # Time in different power states
system.mem_ctrl_1.memoryStateTime::SREF       9922500                       # Time in different power states
system.mem_ctrl_1.memoryStateTime::PRE_PDN     27248000                       # Time in different power states
system.mem_ctrl_1.memoryStateTime::ACT       27106250                       # Time in different power states
system.mem_ctrl_1.memoryStateTime::ACT_PDN    142481250                       # Time in different power states
system.pwrStateResidencyTicks::UNDEFINED    215136000                       # Cumulative time (in ticks) in various power states
system.cache.pwrStateResidencyTicks::UNDEFINED    215136000                       # Cumulative time (in ticks) in various power states
system.cache.hits                                5417                       # Number of hits
system.cache.misses                              6281                       # Number of misses
system.cache.missLatency::samples                6281                       # Ticks for misses to the cache
system.cache.missLatency::mean           32389.428435                       # Ticks for misses to the cache
system.cache.missLatency::gmean          28581.815569                       # Ticks for misses to the cache
system.cache.missLatency::stdev          25001.838971                       # Ticks for misses to the cache
system.cache.missLatency::0-65535                5926     94.35%     94.35% # Ticks for misses to the cache
system.cache.missLatency::65536-131071            300      4.78%     99.12% # Ticks for misses to the cache
system.cache.missLatency::131072-196607            37      0.59%     99.71% # Ticks for misses to the cache
system.cache.missLatency::196608-262143             6      0.10%     99.81% # Ticks for misses to the cache
system.cache.missLatency::262144-327679             7      0.11%     99.92% # Ticks for misses to the cache
system.cache.missLatency::327680-393215             2      0.03%     99.95% # Ticks for misses to the cache
system.cache.missLatency::393216-458751             1      0.02%     99.97% # Ticks for misses to the cache
system.cache.missLatency::458752-524287             0      0.00%     99.97% # Ticks for misses to the cache
system.cache.missLatency::524288-589823             0      0.00%     99.97% # Ticks for misses to the cache
system.cache.missLatency::589824-655359             2      0.03%    100.00% # Ticks for misses to the cache
system.cache.missLatency::655360-720895             0      0.00%    100.00% # Ticks for misses to the cache
system.cache.missLatency::720896-786431             0      0.00%    100.00% # Ticks for misses to the cache
system.cache.missLatency::786432-851967             0      0.00%    100.00% # Ticks for misses to the cache
system.cache.missLatency::851968-917503             0      0.00%    100.00% # Ticks for misses to the cache
system.cache.missLatency::917504-983039             0      0.00%    100.00% # Ticks for misses to the cache
system.cache.missLatency::983040-1.04858e+06            0      0.00%    100.00% # Ticks for misses to the cache
system.cache.missLatency::total                  6281                       # Ticks for misses to the cache
system.cache.hitRatio                        0.463071                       # The ratio of hits to the total accesses to the cache
system.cpu.dtb.fetch_hits                           0                       # ITB hits
system.cpu.dtb.fetch_misses                         0                       # ITB misses
system.cpu.dtb.fetch_acv                            0                       # ITB acv
system.cpu.dtb.fetch_accesses                       0                       # ITB accesses
system.cpu.dtb.read_hits                         1710                       # DTB read hits
system.cpu.dtb.read_misses                         10                       # DTB read misses
system.cpu.dtb.read_acv                             0                       # DTB read access violations
system.cpu.dtb.read_accesses                     1720                       # DTB read accesses
system.cpu.dtb.write_hits                        1209                       # DTB write hits
system.cpu.dtb.write_misses                         2                       # DTB write misses
system.cpu.dtb.write_acv                            0                       # DTB write access violations
system.cpu.dtb.write_accesses                    1211                       # DTB write accesses
system.cpu.dtb.data_hits                         2919                       # DTB hits
system.cpu.dtb.data_misses                         12                       # DTB misses
system.cpu.dtb.data_acv                             0                       # DTB access violations
system.cpu.dtb.data_accesses                     2931                       # DTB accesses
system.cpu.itb.fetch_hits                        8780                       # ITB hits
system.cpu.itb.fetch_misses                        19                       # ITB misses
system.cpu.itb.fetch_acv                            0                       # ITB acv
system.cpu.itb.fetch_accesses                    8799                       # ITB accesses
system.cpu.itb.read_hits                            0                       # DTB read hits
system.cpu.itb.read_misses                          0                       # DTB read misses
system.cpu.itb.read_acv                             0                       # DTB read access violations
system.cpu.itb.read_accesses                        0                       # DTB read accesses
system.cpu.itb.write_hits                           0                       # DTB write hits
system.cpu.itb.write_misses                         0                       # DTB write misses
system.cpu.itb.write_acv                            0                       # DTB write access violations
system.cpu.itb.write_accesses                       0                       # DTB write accesses
system.cpu.itb.data_hits                            0                       # DTB hits
system.cpu.itb.data_misses                          0                       # DTB misses
system.cpu.itb.data_acv                             0                       # DTB access violations
system.cpu.itb.data_accesses                        0                       # DTB accesses
system.cpu.workload.numSyscalls                    10                       # Number of system calls
system.cpu.pwrStateResidencyTicks::ON       215136000                       # Cumulative time (in ticks) in various power states
system.cpu.numCycles                           215136                       # number of cpu cycles simulated
system.cpu.numWorkItemsStarted                      0                       # number of work items this cpu started
system.cpu.numWorkItemsCompleted                    0                       # number of work items this cpu completed
system.cpu.committedInsts                        8767                       # Number of instructions committed
system.cpu.committedOps                          8767                       # Number of ops (including micro ops) committed
system.cpu.num_int_alu_accesses                  8667                       # Number of integer alu accesses
system.cpu.num_fp_alu_accesses                     16                       # Number of float alu accesses
system.cpu.num_vec_alu_accesses                     0                       # Number of vector alu accesses
system.cpu.num_func_calls                         251                       # number of times a function call or return occured
system.cpu.num_conditional_control_insts          903                       # number of instructions that are conditional controls
system.cpu.num_int_insts                         8667                       # number of integer instructions
system.cpu.num_fp_insts                            16                       # number of float instructions
system.cpu.num_vec_insts                            0                       # number of vector instructions
system.cpu.num_int_register_reads               11807                       # number of times the integer registers were read
system.cpu.num_int_register_writes               6404                       # number of times the integer registers were written
system.cpu.num_fp_register_reads                   14                       # number of times the floating registers were read
system.cpu.num_fp_register_writes                   2                       # number of times the floating registers were written
system.cpu.num_vec_register_reads                   0                       # number of times the vector registers were read
system.cpu.num_vec_register_writes                  0                       # number of times the vector registers were written
system.cpu.num_mem_refs                          2931                       # number of memory refs
system.cpu.num_load_insts                        1720                       # Number of load instructions
system.cpu.num_store_insts                       1211                       # Number of store instructions
system.cpu.num_idle_cycles                          0                       # Number of idle cycles
system.cpu.num_busy_cycles                     215136                       # Number of busy cycles
system.cpu.not_idle_fraction                        1                       # Percentage of non-idle cycles
system.cpu.idle_fraction                            0                       # Percentage of idle cycles
system.cpu.Branches                              1241                       # Number of branches fetched
system.cpu.op_class::No_OpClass                    32      0.36%      0.36% # Class of executed instruction
system.cpu.op_class::IntAlu                      5813     66.21%     66.58% # Class of executed instruction
system.cpu.op_class::IntMult                        1      0.01%     66.59% # Class of executed instruction
system.cpu.op_class::IntDiv                         0      0.00%     66.59% # Class of executed instruction
system.cpu.op_class::FloatAdd                       2      0.02%     66.61% # Class of executed instruction
system.cpu.op_class::FloatCmp                       0      0.00%     66.61% # Class of executed instruction
system.cpu.op_class::FloatCvt                       0      0.00%     66.61% # Class of executed instruction
system.cpu.op_class::FloatMult                      0      0.00%     66.61% # Class of executed instruction
system.cpu.op_class::FloatMultAcc                   0      0.00%     66.61% # Class of executed instruction
system.cpu.op_class::FloatDiv                       0      0.00%     66.61% # Class of executed instruction
system.cpu.op_class::FloatMisc                      0      0.00%     66.61% # Class of executed instruction
system.cpu.op_class::FloatSqrt                      0      0.00%     66.61% # Class of executed instruction
system.cpu.op_class::SimdAdd                        0      0.00%     66.61% # Class of executed instruction
system.cpu.op_class::SimdAddAcc                     0      0.00%     66.61% # Class of executed instruction
system.cpu.op_class::SimdAlu                        0      0.00%     66.61% # Class of executed instruction
system.cpu.op_class::SimdCmp                        0      0.00%     66.61% # Class of executed instruction
system.cpu.op_class::SimdCvt                        0      0.00%     66.61% # Class of executed instruction
system.cpu.op_class::SimdMisc                       0      0.00%     66.61% # Class of executed instruction
system.cpu.op_class::SimdMult                       0      0.00%     66.61% # Class of executed instruction
system.cpu.op_class::SimdMultAcc                    0      0.00%     66.61% # Class of executed instruction
system.cpu.op_class::SimdShift                      0      0.00%     66.61% # Class of executed instruction
system.cpu.op_class::SimdShiftAcc                   0      0.00%     66.61% # Class of executed instruction
system.cpu.op_class::SimdSqrt                       0      0.00%     66.61% # Class of executed instruction
system.cpu.op_class::SimdFloatAdd                   0      0.00%     66.61% # Class of executed instruction
system.cpu.op_class::SimdFloatAlu                   0      0.00%     66.61% # Class of executed instruction
system.cpu.op_class::SimdFloatCmp                   0      0.00%     66.61% # Class of executed instruction
system.cpu.op_class::SimdFloatCvt                   0      0.00%     66.61% # Class of executed instruction
system.cpu.op_class::SimdFloatDiv                   0      0.00%     66.61% # Class of executed instruction
system.cpu.op_class::SimdFloatMisc                  0      0.00%     66.61% # Class of executed instruction
system.cpu.op_class::SimdFloatMult                  0      0.00%     66.61% # Class of executed instruction
system.cpu.op_class::SimdFloatMultAcc               0      0.00%     66.61% # Class of executed instruction
system.cpu.op_class::SimdFloatSqrt                  0      0.00%     66.61% # Class of executed instruction
system.cpu.op_class::MemRead                     1719     19.58%     86.19% # Class of executed instruction
system.cpu.op_class::MemWrite                    1198     13.65%     99.84% # Class of executed instruction
system.cpu.op_class::FloatMemRead                   1      0.01%     99.85% # Class of executed instruction
system.cpu.op_class::FloatMemWrite                 13      0.15%    100.00% # Class of executed instruction
system.cpu.op_class::IprAccess                      0      0.00%    100.00% # Class of executed instruction
system.cpu.op_class::InstPrefetch                   0      0.00%    100.00% # Class of executed instruction
system.cpu.op_class::total                       8779                       # Class of executed instruction
system.membus.snoop_filter.tot_requests             0                       # Total number of requests made to the snoop filter.
system.membus.snoop_filter.hit_single_requests            0                       # Number of requests hitting in the snoop filter with a single holder of the requested data.
system.membus.snoop_filter.hit_multi_requests            0                       # Number of requests hitting in the snoop filter with multiple (>1) holders of the requested data.
system.membus.snoop_filter.tot_snoops               0                       # Total number of snoops made to the snoop filter.
system.membus.snoop_filter.hit_single_snoops            0                       # Number of snoops hitting in the snoop filter with a single holder of the requested data.
system.membus.snoop_filter.hit_multi_snoops            0                       # Number of snoops hitting in the snoop filter with multiple (>1) holders of the requested data.
system.membus.pwrStateResidencyTicks::UNDEFINED    215136000                       # Cumulative time (in ticks) in various power states
system.membus.trans_dist::ReadReq                6281                       # Transaction distribution
system.membus.trans_dist::ReadResp               6281                       # Transaction distribution
system.membus.trans_dist::WritebackDirty         6265                       # Transaction distribution
system.membus.pkt_count_system.cache.mem_side::system.mem_ctrl.port        18827                       # Packet count per connected master and slave (bytes)
system.membus.pkt_count::total                  18827                       # Packet count per connected master and slave (bytes)
system.membus.pkt_size_system.cache.mem_side::system.mem_ctrl.port       802944                       # Cumulative packet size per connected master and slave (bytes)
system.membus.pkt_size::total                  802944                       # Cumulative packet size per connected master and slave (bytes)
system.membus.snoops                                0                       # Total snoops (count)
system.membus.snoopTraffic                          0                       # Total snoop traffic (bytes)
system.membus.snoop_fanout::samples              6281                       # Request fanout histogram
system.membus.snoop_fanout::mean                    0                       # Request fanout histogram
system.membus.snoop_fanout::stdev                   0                       # Request fanout histogram
system.membus.snoop_fanout::underflows              0      0.00%      0.00% # Request fanout histogram
system.membus.snoop_fanout::0                    6281    100.00%    100.00% # Request fanout histogram
system.membus.snoop_fanout::overflows               0      0.00%    100.00% # Request fanout histogram
system.membus.snoop_fanout::min_value               0                       # Request fanout histogram
system.membus.snoop_fanout::max_value               0                       # Request fanout histogram
system.membus.snoop_fanout::total                6281                       # Request fanout histogram
system.membus.reqLayer0.occupancy            37606000                       # Layer occupancy (ticks)
system.membus.reqLayer0.utilization              17.5                       # Layer utilization (%)
system.membus.respLayer0.occupancy           31801750                       # Layer occupancy (ticks)
system.membus.respLayer0.utilization             14.8                       # Layer utilization (%)

---------- End Simulation Statistics   ----------
