
---------- Begin Simulation Statistics ----------
sim_seconds                                  0.000080                       # Number of seconds simulated
sim_ticks                                    79525000                       # Number of ticks simulated
final_tick                                   79525000                       # Number of ticks from beginning of simulation (restored from checkpoints and never reset)
sim_freq                                 1000000000000                       # Frequency of simulated ticks
host_inst_rate                                 522195                       # Simulator instruction rate (inst/s)
host_op_rate                                   521424                       # Simulator op (including micro ops) rate (op/s)
host_tick_rate                             5333668679                       # Simulator tick rate (ticks/s)
host_mem_usage                                8484352                       # Number of bytes of host memory used
host_seconds                                     0.02                       # Real time elapsed on the host
sim_insts                                        7764                       # Number of instructions simulated
sim_ops                                          7764                       # Number of ops (including micro ops) simulated
system.clk_domain.voltage_domain.voltage            1                       # Voltage in Volts
system.clk_domain.clock                          1000                       # Clock period in ticks
system.mem_ctrl.pwrStateResidencyTicks::UNDEFINED     79525000                       # Cumulative time (in ticks) in various power states
system.mem_ctrl.bytes_read::cpu.inst            44224                       # Number of bytes read from this memory
system.mem_ctrl.bytes_read::cpu.data            43264                       # Number of bytes read from this memory
system.mem_ctrl.bytes_read::total               87488                       # Number of bytes read from this memory
system.mem_ctrl.bytes_inst_read::cpu.inst        44224                       # Number of instructions bytes read from this memory
system.mem_ctrl.bytes_inst_read::total          44224                       # Number of instructions bytes read from this memory
system.mem_ctrl.bytes_written::writebacks        86464                       # Number of bytes written to this memory
system.mem_ctrl.bytes_written::total            86464                       # Number of bytes written to this memory
system.mem_ctrl.num_reads::cpu.inst               691                       # Number of read requests responded to by this memory
system.mem_ctrl.num_reads::cpu.data               676                       # Number of read requests responded to by this memory
system.mem_ctrl.num_reads::total                 1367                       # Number of read requests responded to by this memory
system.mem_ctrl.num_writes::writebacks           1351                       # Number of write requests responded to by this memory
system.mem_ctrl.num_writes::total                1351                       # Number of write requests responded to by this memory
system.mem_ctrl.bw_read::cpu.inst           556101855                       # Total read bandwidth from this memory (bytes/s)
system.mem_ctrl.bw_read::cpu.data           544030179                       # Total read bandwidth from this memory (bytes/s)
system.mem_ctrl.bw_read::total             1100132034                       # Total read bandwidth from this memory (bytes/s)
system.mem_ctrl.bw_inst_read::cpu.inst      556101855                       # Instruction read bandwidth from this memory (bytes/s)
system.mem_ctrl.bw_inst_read::total         556101855                       # Instruction read bandwidth from this memory (bytes/s)
system.mem_ctrl.bw_write::writebacks       1087255580                       # Write bandwidth from this memory (bytes/s)
system.mem_ctrl.bw_write::total            1087255580                       # Write bandwidth from this memory (bytes/s)
system.mem_ctrl.bw_total::writebacks       1087255580                       # Total bandwidth to/from this memory (bytes/s)
system.mem_ctrl.bw_total::cpu.inst          556101855                       # Total bandwidth to/from this memory (bytes/s)
system.mem_ctrl.bw_total::cpu.data          544030179                       # Total bandwidth to/from this memory (bytes/s)
system.mem_ctrl.bw_total::total            2187387614                       # Total bandwidth to/from this memory (bytes/s)
system.mem_ctrl.readReqs                         1367                       # Number of read requests accepted
system.mem_ctrl.writeReqs                        1351                       # Number of write requests accepted
system.mem_ctrl.readBursts                       1367                       # Number of DRAM read bursts, including those serviced by the write queue
system.mem_ctrl.writeBursts                      1351                       # Number of DRAM write bursts, including those merged in the write queue
system.mem_ctrl.bytesReadDRAM                   53760                       # Total number of bytes read from DRAM
system.mem_ctrl.bytesReadWrQ                    33728                       # Total number of bytes read from write queue
system.mem_ctrl.bytesWritten                    59456                       # Total number of bytes written to DRAM
system.mem_ctrl.bytesReadSys                    87488                       # Total read bytes from the system interface side
system.mem_ctrl.bytesWrittenSys                 86464                       # Total written bytes from the system interface side
system.mem_ctrl.servicedByWrQ                     527                       # Number of DRAM read bursts serviced by the write queue
system.mem_ctrl.mergedWrBursts                    394                       # Number of DRAM write bursts merged with an existing one
system.mem_ctrl.neitherReadNorWriteReqs             0                       # Number of requests that are neither read nor write
system.mem_ctrl.perBankRdBursts::0                 84                       # Per bank write bursts
system.mem_ctrl.perBankRdBursts::1                 28                       # Per bank write bursts
system.mem_ctrl.perBankRdBursts::2                202                       # Per bank write bursts
system.mem_ctrl.perBankRdBursts::3                153                       # Per bank write bursts
system.mem_ctrl.perBankRdBursts::4                 87                       # Per bank write bursts
system.mem_ctrl.perBankRdBursts::5                 42                       # Per bank write bursts
system.mem_ctrl.perBankRdBursts::6                 11                       # Per bank write bursts
system.mem_ctrl.perBankRdBursts::7                  0                       # Per bank write bursts
system.mem_ctrl.perBankRdBursts::8                  3                       # Per bank write bursts
system.mem_ctrl.perBankRdBursts::9                 72                       # Per bank write bursts
system.mem_ctrl.perBankRdBursts::10                 9                       # Per bank write bursts
system.mem_ctrl.perBankRdBursts::11                11                       # Per bank write bursts
system.mem_ctrl.perBankRdBursts::12                 7                       # Per bank write bursts
system.mem_ctrl.perBankRdBursts::13                40                       # Per bank write bursts
system.mem_ctrl.perBankRdBursts::14                51                       # Per bank write bursts
system.mem_ctrl.perBankRdBursts::15                40                       # Per bank write bursts
system.mem_ctrl.perBankWrBursts::0                 93                       # Per bank write bursts
system.mem_ctrl.perBankWrBursts::1                 29                       # Per bank write bursts
system.mem_ctrl.perBankWrBursts::2                222                       # Per bank write bursts
system.mem_ctrl.perBankWrBursts::3                175                       # Per bank write bursts
system.mem_ctrl.perBankWrBursts::4                 91                       # Per bank write bursts
system.mem_ctrl.perBankWrBursts::5                 53                       # Per bank write bursts
system.mem_ctrl.perBankWrBursts::6                 11                       # Per bank write bursts
system.mem_ctrl.perBankWrBursts::7                  0                       # Per bank write bursts
system.mem_ctrl.perBankWrBursts::8                  3                       # Per bank write bursts
system.mem_ctrl.perBankWrBursts::9                 95                       # Per bank write bursts
system.mem_ctrl.perBankWrBursts::10                11                       # Per bank write bursts
system.mem_ctrl.perBankWrBursts::11                11                       # Per bank write bursts
system.mem_ctrl.perBankWrBursts::12                 7                       # Per bank write bursts
system.mem_ctrl.perBankWrBursts::13                37                       # Per bank write bursts
system.mem_ctrl.perBankWrBursts::14                53                       # Per bank write bursts
system.mem_ctrl.perBankWrBursts::15                38                       # Per bank write bursts
system.mem_ctrl.numRdRetry                          0                       # Number of times read queue was full causing retry
system.mem_ctrl.numWrRetry                          0                       # Number of times write queue was full causing retry
system.mem_ctrl.totGap                       79517000                       # Total gap between requests
system.mem_ctrl.readPktSize::0                      0                       # Read request sizes (log2)
system.mem_ctrl.readPktSize::1                      0                       # Read request sizes (log2)
system.mem_ctrl.readPktSize::2                      0                       # Read request sizes (log2)
system.mem_ctrl.readPktSize::3                      0                       # Read request sizes (log2)
system.mem_ctrl.readPktSize::4                      0                       # Read request sizes (log2)
system.mem_ctrl.readPktSize::5                      0                       # Read request sizes (log2)
system.mem_ctrl.readPktSize::6                   1367                       # Read request sizes (log2)
system.mem_ctrl.writePktSize::0                     0                       # Write request sizes (log2)
system.mem_ctrl.writePktSize::1                     0                       # Write request sizes (log2)
system.mem_ctrl.writePktSize::2                     0                       # Write request sizes (log2)
system.mem_ctrl.writePktSize::3                     0                       # Write request sizes (log2)
system.mem_ctrl.writePktSize::4                     0                       # Write request sizes (log2)
system.mem_ctrl.writePktSize::5                     0                       # Write request sizes (log2)
system.mem_ctrl.writePktSize::6                  1351                       # Write request sizes (log2)
system.mem_ctrl.rdQLenPdf::0                      840                       # What read queue length does an incoming req see
system.mem_ctrl.rdQLenPdf::1                        0                       # What read queue length does an incoming req see
system.mem_ctrl.rdQLenPdf::2                        0                       # What read queue length does an incoming req see
system.mem_ctrl.rdQLenPdf::3                        0                       # What read queue length does an incoming req see
system.mem_ctrl.rdQLenPdf::4                        0                       # What read queue length does an incoming req see
system.mem_ctrl.rdQLenPdf::5                        0                       # What read queue length does an incoming req see
system.mem_ctrl.rdQLenPdf::6                        0                       # What read queue length does an incoming req see
system.mem_ctrl.rdQLenPdf::7                        0                       # What read queue length does an incoming req see
system.mem_ctrl.rdQLenPdf::8                        0                       # What read queue length does an incoming req see
system.mem_ctrl.rdQLenPdf::9                        0                       # What read queue length does an incoming req see
system.mem_ctrl.rdQLenPdf::10                       0                       # What read queue length does an incoming req see
system.mem_ctrl.rdQLenPdf::11                       0                       # What read queue length does an incoming req see
system.mem_ctrl.rdQLenPdf::12                       0                       # What read queue length does an incoming req see
system.mem_ctrl.rdQLenPdf::13                       0                       # What read queue length does an incoming req see
system.mem_ctrl.rdQLenPdf::14                       0                       # What read queue length does an incoming req see
system.mem_ctrl.rdQLenPdf::15                       0                       # What read queue length does an incoming req see
system.mem_ctrl.rdQLenPdf::16                       0                       # What read queue length does an incoming req see
system.mem_ctrl.rdQLenPdf::17                       0                       # What read queue length does an incoming req see
system.mem_ctrl.rdQLenPdf::18                       0                       # What read queue length does an incoming req see
system.mem_ctrl.rdQLenPdf::19                       0                       # What read queue length does an incoming req see
system.mem_ctrl.rdQLenPdf::20                       0                       # What read queue length does an incoming req see
system.mem_ctrl.rdQLenPdf::21                       0                       # What read queue length does an incoming req see
system.mem_ctrl.rdQLenPdf::22                       0                       # What read queue length does an incoming req see
system.mem_ctrl.rdQLenPdf::23                       0                       # What read queue length does an incoming req see
system.mem_ctrl.rdQLenPdf::24                       0                       # What read queue length does an incoming req see
system.mem_ctrl.rdQLenPdf::25                       0                       # What read queue length does an incoming req see
system.mem_ctrl.rdQLenPdf::26                       0                       # What read queue length does an incoming req see
system.mem_ctrl.rdQLenPdf::27                       0                       # What read queue length does an incoming req see
system.mem_ctrl.rdQLenPdf::28                       0                       # What read queue length does an incoming req see
system.mem_ctrl.rdQLenPdf::29                       0                       # What read queue length does an incoming req see
system.mem_ctrl.rdQLenPdf::30                       0                       # What read queue length does an incoming req see
system.mem_ctrl.rdQLenPdf::31                       0                       # What read queue length does an incoming req see
system.mem_ctrl.wrQLenPdf::0                        1                       # What write queue length does an incoming req see
system.mem_ctrl.wrQLenPdf::1                        1                       # What write queue length does an incoming req see
system.mem_ctrl.wrQLenPdf::2                        1                       # What write queue length does an incoming req see
system.mem_ctrl.wrQLenPdf::3                        1                       # What write queue length does an incoming req see
system.mem_ctrl.wrQLenPdf::4                        1                       # What write queue length does an incoming req see
system.mem_ctrl.wrQLenPdf::5                        1                       # What write queue length does an incoming req see
system.mem_ctrl.wrQLenPdf::6                        1                       # What write queue length does an incoming req see
system.mem_ctrl.wrQLenPdf::7                        1                       # What write queue length does an incoming req see
system.mem_ctrl.wrQLenPdf::8                        1                       # What write queue length does an incoming req see
system.mem_ctrl.wrQLenPdf::9                        1                       # What write queue length does an incoming req see
system.mem_ctrl.wrQLenPdf::10                       1                       # What write queue length does an incoming req see
system.mem_ctrl.wrQLenPdf::11                       1                       # What write queue length does an incoming req see
system.mem_ctrl.wrQLenPdf::12                       1                       # What write queue length does an incoming req see
system.mem_ctrl.wrQLenPdf::13                       1                       # What write queue length does an incoming req see
system.mem_ctrl.wrQLenPdf::14                       1                       # What write queue length does an incoming req see
system.mem_ctrl.wrQLenPdf::15                       5                       # What write queue length does an incoming req see
system.mem_ctrl.wrQLenPdf::16                       5                       # What write queue length does an incoming req see
system.mem_ctrl.wrQLenPdf::17                      50                       # What write queue length does an incoming req see
system.mem_ctrl.wrQLenPdf::18                      58                       # What write queue length does an incoming req see
system.mem_ctrl.wrQLenPdf::19                      58                       # What write queue length does an incoming req see
system.mem_ctrl.wrQLenPdf::20                      60                       # What write queue length does an incoming req see
system.mem_ctrl.wrQLenPdf::21                      58                       # What write queue length does an incoming req see
system.mem_ctrl.wrQLenPdf::22                      60                       # What write queue length does an incoming req see
system.mem_ctrl.wrQLenPdf::23                      70                       # What write queue length does an incoming req see
system.mem_ctrl.wrQLenPdf::24                      59                       # What write queue length does an incoming req see
system.mem_ctrl.wrQLenPdf::25                      58                       # What write queue length does an incoming req see
system.mem_ctrl.wrQLenPdf::26                      58                       # What write queue length does an incoming req see
system.mem_ctrl.wrQLenPdf::27                      58                       # What write queue length does an incoming req see
system.mem_ctrl.wrQLenPdf::28                      57                       # What write queue length does an incoming req see
system.mem_ctrl.wrQLenPdf::29                      57                       # What write queue length does an incoming req see
system.mem_ctrl.wrQLenPdf::30                      57                       # What write queue length does an incoming req see
system.mem_ctrl.wrQLenPdf::31                      57                       # What write queue length does an incoming req see
system.mem_ctrl.wrQLenPdf::32                      57                       # What write queue length does an incoming req see
system.mem_ctrl.wrQLenPdf::33                       0                       # What write queue length does an incoming req see
system.mem_ctrl.wrQLenPdf::34                       0                       # What write queue length does an incoming req see
system.mem_ctrl.wrQLenPdf::35                       0                       # What write queue length does an incoming req see
system.mem_ctrl.wrQLenPdf::36                       0                       # What write queue length does an incoming req see
system.mem_ctrl.wrQLenPdf::37                       0                       # What write queue length does an incoming req see
system.mem_ctrl.wrQLenPdf::38                       0                       # What write queue length does an incoming req see
system.mem_ctrl.wrQLenPdf::39                       0                       # What write queue length does an incoming req see
system.mem_ctrl.wrQLenPdf::40                       0                       # What write queue length does an incoming req see
system.mem_ctrl.wrQLenPdf::41                       0                       # What write queue length does an incoming req see
system.mem_ctrl.wrQLenPdf::42                       0                       # What write queue length does an incoming req see
system.mem_ctrl.wrQLenPdf::43                       0                       # What write queue length does an incoming req see
system.mem_ctrl.wrQLenPdf::44                       0                       # What write queue length does an incoming req see
system.mem_ctrl.wrQLenPdf::45                       0                       # What write queue length does an incoming req see
system.mem_ctrl.wrQLenPdf::46                       0                       # What write queue length does an incoming req see
system.mem_ctrl.wrQLenPdf::47                       0                       # What write queue length does an incoming req see
system.mem_ctrl.wrQLenPdf::48                       0                       # What write queue length does an incoming req see
system.mem_ctrl.wrQLenPdf::49                       0                       # What write queue length does an incoming req see
system.mem_ctrl.wrQLenPdf::50                       0                       # What write queue length does an incoming req see
system.mem_ctrl.wrQLenPdf::51                       0                       # What write queue length does an incoming req see
system.mem_ctrl.wrQLenPdf::52                       0                       # What write queue length does an incoming req see
system.mem_ctrl.wrQLenPdf::53                       0                       # What write queue length does an incoming req see
system.mem_ctrl.wrQLenPdf::54                       0                       # What write queue length does an incoming req see
system.mem_ctrl.wrQLenPdf::55                       0                       # What write queue length does an incoming req see
system.mem_ctrl.wrQLenPdf::56                       0                       # What write queue length does an incoming req see
system.mem_ctrl.wrQLenPdf::57                       0                       # What write queue length does an incoming req see
system.mem_ctrl.wrQLenPdf::58                       0                       # What write queue length does an incoming req see
system.mem_ctrl.wrQLenPdf::59                       0                       # What write queue length does an incoming req see
system.mem_ctrl.wrQLenPdf::60                       0                       # What write queue length does an incoming req see
system.mem_ctrl.wrQLenPdf::61                       0                       # What write queue length does an incoming req see
system.mem_ctrl.wrQLenPdf::62                       0                       # What write queue length does an incoming req see
system.mem_ctrl.wrQLenPdf::63                       0                       # What write queue length does an incoming req see
system.mem_ctrl.bytesPerActivate::samples          283                       # Bytes accessed per row activation
system.mem_ctrl.bytesPerActivate::mean     397.795053                       # Bytes accessed per row activation
system.mem_ctrl.bytesPerActivate::gmean    253.091334                       # Bytes accessed per row activation
system.mem_ctrl.bytesPerActivate::stdev    350.622224                       # Bytes accessed per row activation
system.mem_ctrl.bytesPerActivate::0-127            62     21.91%     21.91% # Bytes accessed per row activation
system.mem_ctrl.bytesPerActivate::128-255           72     25.44%     47.35% # Bytes accessed per row activation
system.mem_ctrl.bytesPerActivate::256-383           37     13.07%     60.42% # Bytes accessed per row activation
system.mem_ctrl.bytesPerActivate::384-511           16      5.65%     66.08% # Bytes accessed per row activation
system.mem_ctrl.bytesPerActivate::512-639           19      6.71%     72.79% # Bytes accessed per row activation
system.mem_ctrl.bytesPerActivate::640-767           13      4.59%     77.39% # Bytes accessed per row activation
system.mem_ctrl.bytesPerActivate::768-895           10      3.53%     80.92% # Bytes accessed per row activation
system.mem_ctrl.bytesPerActivate::896-1023           12      4.24%     85.16% # Bytes accessed per row activation
system.mem_ctrl.bytesPerActivate::1024-1151           42     14.84%    100.00% # Bytes accessed per row activation
system.mem_ctrl.bytesPerActivate::total           283                       # Bytes accessed per row activation
system.mem_ctrl.rdPerTurnAround::samples           57                       # Reads before turning the bus around for writes
system.mem_ctrl.rdPerTurnAround::mean       14.561404                       # Reads before turning the bus around for writes
system.mem_ctrl.rdPerTurnAround::gmean      13.893182                       # Reads before turning the bus around for writes
system.mem_ctrl.rdPerTurnAround::stdev       5.010765                       # Reads before turning the bus around for writes
system.mem_ctrl.rdPerTurnAround::2-3                1      1.75%      1.75% # Reads before turning the bus around for writes
system.mem_ctrl.rdPerTurnAround::8-9                3      5.26%      7.02% # Reads before turning the bus around for writes
system.mem_ctrl.rdPerTurnAround::10-11              5      8.77%     15.79% # Reads before turning the bus around for writes
system.mem_ctrl.rdPerTurnAround::12-13              8     14.04%     29.82% # Reads before turning the bus around for writes
system.mem_ctrl.rdPerTurnAround::14-15             24     42.11%     71.93% # Reads before turning the bus around for writes
system.mem_ctrl.rdPerTurnAround::16-17             11     19.30%     91.23% # Reads before turning the bus around for writes
system.mem_ctrl.rdPerTurnAround::18-19              3      5.26%     96.49% # Reads before turning the bus around for writes
system.mem_ctrl.rdPerTurnAround::20-21              1      1.75%     98.25% # Reads before turning the bus around for writes
system.mem_ctrl.rdPerTurnAround::44-45              1      1.75%    100.00% # Reads before turning the bus around for writes
system.mem_ctrl.rdPerTurnAround::total             57                       # Reads before turning the bus around for writes
system.mem_ctrl.wrPerTurnAround::samples           57                       # Writes before turning the bus around for reads
system.mem_ctrl.wrPerTurnAround::mean       16.298246                       # Writes before turning the bus around for reads
system.mem_ctrl.wrPerTurnAround::gmean      16.274153                       # Writes before turning the bus around for reads
system.mem_ctrl.wrPerTurnAround::stdev       0.944248                       # Writes before turning the bus around for reads
system.mem_ctrl.wrPerTurnAround::16                51     89.47%     89.47% # Writes before turning the bus around for reads
system.mem_ctrl.wrPerTurnAround::17                 1      1.75%     91.23% # Writes before turning the bus around for reads
system.mem_ctrl.wrPerTurnAround::18                 1      1.75%     92.98% # Writes before turning the bus around for reads
system.mem_ctrl.wrPerTurnAround::19                 2      3.51%     96.49% # Writes before turning the bus around for reads
system.mem_ctrl.wrPerTurnAround::20                 2      3.51%    100.00% # Writes before turning the bus around for reads
system.mem_ctrl.wrPerTurnAround::total             57                       # Writes before turning the bus around for reads
system.mem_ctrl.totQLat                      15459000                       # Total ticks spent queuing
system.mem_ctrl.totMemAccLat                 31209000                       # Total ticks spent from burst creation until serviced by the DRAM
system.mem_ctrl.totBusLat                     4200000                       # Total ticks spent in databus transfers
system.mem_ctrl.avgQLat                      18403.57                       # Average queueing delay per DRAM burst
system.mem_ctrl.avgBusLat                     5000.00                       # Average bus latency per DRAM burst
system.mem_ctrl.avgMemAccLat                 37153.57                       # Average memory access latency per DRAM burst
system.mem_ctrl.avgRdBW                        676.01                       # Average DRAM read bandwidth in MiByte/s
system.mem_ctrl.avgWrBW                        747.64                       # Average achieved write bandwidth in MiByte/s
system.mem_ctrl.avgRdBWSys                    1100.13                       # Average system read bandwidth in MiByte/s
system.mem_ctrl.avgWrBWSys                    1087.26                       # Average system write bandwidth in MiByte/s
system.mem_ctrl.peakBW                       12800.00                       # Theoretical peak bandwidth in MiByte/s
system.mem_ctrl.busUtil                         11.12                       # Data bus utilization in percentage
system.mem_ctrl.busUtilRead                      5.28                       # Data bus utilization in percentage for reads
system.mem_ctrl.busUtilWrite                     5.84                       # Data bus utilization in percentage for writes
system.mem_ctrl.avgRdQLen                        1.00                       # Average read queue length when enqueuing
system.mem_ctrl.avgWrQLen                       25.21                       # Average write queue length when enqueuing
system.mem_ctrl.readRowHits                       621                       # Number of row buffer hits during reads
system.mem_ctrl.writeRowHits                      859                       # Number of row buffer hits during writes
system.mem_ctrl.readRowHitRate                  73.93                       # Row buffer hit rate for reads
system.mem_ctrl.writeRowHitRate                 89.76                       # Row buffer hit rate for writes
system.mem_ctrl.avgGap                       29255.70                       # Average gap between requests
system.mem_ctrl.pageHitRate                     82.36                       # Row buffer hit rate, read and write combined
system.mem_ctrl_0.actEnergy                   1642200                       # Energy for activate commands per rank (pJ)
system.mem_ctrl_0.preEnergy                    861465                       # Energy for precharge commands per rank (pJ)
system.mem_ctrl_0.readEnergy                  4333980                       # Energy for read commands per rank (pJ)
system.mem_ctrl_0.writeEnergy                 3518280                       # Energy for write commands per rank (pJ)
system.mem_ctrl_0.refreshEnergy          6146400.000000                       # Energy for refresh commands per rank (pJ)
system.mem_ctrl_0.actBackEnergy              14325810                       # Energy for active background per rank (pJ)
system.mem_ctrl_0.preBackEnergy                125280                       # Energy for precharge background per rank (pJ)
system.mem_ctrl_0.actPowerDownEnergy         19670130                       # Energy for active power-down per rank (pJ)
system.mem_ctrl_0.prePowerDownEnergy          1784160                       # Energy for precharge power-down per rank (pJ)
system.mem_ctrl_0.selfRefreshEnergy                 0                       # Energy for self refresh per rank (pJ)
system.mem_ctrl_0.totalEnergy                52407705                       # Total energy per rank (pJ)
system.mem_ctrl_0.averagePower             659.009180                       # Core power per rank (mW)
system.mem_ctrl_0.totalIdleTime              47739500                       # Total Idle time Per DRAM Rank
system.mem_ctrl_0.memoryStateTime::IDLE         49000                       # Time in different power states
system.mem_ctrl_0.memoryStateTime::REF        2600000                       # Time in different power states
system.mem_ctrl_0.memoryStateTime::SREF             0                       # Time in different power states
system.mem_ctrl_0.memoryStateTime::PRE_PDN      4645750                       # Time in different power states
system.mem_ctrl_0.memoryStateTime::ACT       29099250                       # Time in different power states
system.mem_ctrl_0.memoryStateTime::ACT_PDN     43131000                       # Time in different power states
system.mem_ctrl_1.actEnergy                    421260                       # Energy for activate commands per rank (pJ)
system.mem_ctrl_1.preEnergy                    212520                       # Energy for precharge commands per rank (pJ)
system.mem_ctrl_1.readEnergy                  1663620                       # Energy for read commands per rank (pJ)
system.mem_ctrl_1.writeEnergy                 1331100                       # Energy for write commands per rank (pJ)
system.mem_ctrl_1.refreshEnergy          6146400.000000                       # Energy for refresh commands per rank (pJ)
system.mem_ctrl_1.actBackEnergy              11382900                       # Energy for active background per rank (pJ)
system.mem_ctrl_1.preBackEnergy                285600                       # Energy for precharge background per rank (pJ)
system.mem_ctrl_1.actPowerDownEnergy         21076890                       # Energy for active power-down per rank (pJ)
system.mem_ctrl_1.prePowerDownEnergy          2917440                       # Energy for precharge power-down per rank (pJ)
system.mem_ctrl_1.selfRefreshEnergy                 0                       # Energy for self refresh per rank (pJ)
system.mem_ctrl_1.totalEnergy                45437730                       # Total energy per rank (pJ)
system.mem_ctrl_1.averagePower             571.364099                       # Core power per rank (mW)
system.mem_ctrl_1.totalIdleTime              53426250                       # Total Idle time Per DRAM Rank
system.mem_ctrl_1.memoryStateTime::IDLE        468000                       # Time in different power states
system.mem_ctrl_1.memoryStateTime::REF        2600000                       # Time in different power states
system.mem_ctrl_1.memoryStateTime::SREF             0                       # Time in different power states
system.mem_ctrl_1.memoryStateTime::PRE_PDN      7595250                       # Time in different power states
system.mem_ctrl_1.memoryStateTime::ACT       22634500                       # Time in different power states
system.mem_ctrl_1.memoryStateTime::ACT_PDN     46227250                       # Time in different power states
system.pwrStateResidencyTicks::UNDEFINED     79525000                       # Cumulative time (in ticks) in various power states
system.cache.pwrStateResidencyTicks::UNDEFINED     79525000                       # Cumulative time (in ticks) in various power states
system.cache.hits                                8971                       # Number of hits
system.cache.misses                              1367                       # Number of misses
system.cache.missLatency::samples                1367                       # Ticks for misses to the cache
system.cache.missLatency::mean           50612.289685                       # Ticks for misses to the cache
system.cache.missLatency::gmean          42223.934713                       # Ticks for misses to the cache
system.cache.missLatency::stdev          35911.418119                       # Ticks for misses to the cache
system.cache.missLatency::0-32767                 527     38.55%     38.55% # Ticks for misses to the cache
system.cache.missLatency::32768-65535             604     44.18%     82.74% # Ticks for misses to the cache
system.cache.missLatency::65536-98303             174     12.73%     95.46% # Ticks for misses to the cache
system.cache.missLatency::98304-131071             12      0.88%     96.34% # Ticks for misses to the cache
system.cache.missLatency::131072-163839            33      2.41%     98.76% # Ticks for misses to the cache
system.cache.missLatency::163840-196607             8      0.59%     99.34% # Ticks for misses to the cache
system.cache.missLatency::196608-229375             0      0.00%     99.34% # Ticks for misses to the cache
system.cache.missLatency::229376-262143             0      0.00%     99.34% # Ticks for misses to the cache
system.cache.missLatency::262144-294911             2      0.15%     99.49% # Ticks for misses to the cache
system.cache.missLatency::294912-327679             4      0.29%     99.78% # Ticks for misses to the cache
system.cache.missLatency::327680-360447             2      0.15%     99.93% # Ticks for misses to the cache
system.cache.missLatency::360448-393215             1      0.07%    100.00% # Ticks for misses to the cache
system.cache.missLatency::393216-425983             0      0.00%    100.00% # Ticks for misses to the cache
system.cache.missLatency::425984-458751             0      0.00%    100.00% # Ticks for misses to the cache
system.cache.missLatency::458752-491519             0      0.00%    100.00% # Ticks for misses to the cache
system.cache.missLatency::491520-524287             0      0.00%    100.00% # Ticks for misses to the cache
system.cache.missLatency::total                  1367                       # Ticks for misses to the cache
system.cache.hitRatio                        0.867769                       # The ratio of hits to the total accesses to the cache
system.cpu.dtb.fetch_hits                           0                       # ITB hits
system.cpu.dtb.fetch_misses                         0                       # ITB misses
system.cpu.dtb.fetch_acv                            0                       # ITB acv
system.cpu.dtb.fetch_accesses                       0                       # ITB accesses
system.cpu.dtb.read_hits                         1526                       # DTB read hits
system.cpu.dtb.read_misses                         10                       # DTB read misses
system.cpu.dtb.read_acv                             0                       # DTB read access violations
system.cpu.dtb.read_accesses                     1536                       # DTB read accesses
system.cpu.dtb.write_hits                        1036                       # DTB write hits
system.cpu.dtb.write_misses                         2                       # DTB write misses
system.cpu.dtb.write_acv                            0                       # DTB write access violations
system.cpu.dtb.write_accesses                    1038                       # DTB write accesses
system.cpu.dtb.data_hits                         2562                       # DTB hits
system.cpu.dtb.data_misses                         12                       # DTB misses
system.cpu.dtb.data_acv                             0                       # DTB access violations
system.cpu.dtb.data_accesses                     2574                       # DTB accesses
system.cpu.itb.fetch_hits                        7777                       # ITB hits
system.cpu.itb.fetch_misses                        18                       # ITB misses
system.cpu.itb.fetch_acv                            0                       # ITB acv
system.cpu.itb.fetch_accesses                    7795                       # ITB accesses
system.cpu.itb.read_hits                            0                       # DTB read hits
system.cpu.itb.read_misses                          0                       # DTB read misses
system.cpu.itb.read_acv                             0                       # DTB read access violations
system.cpu.itb.read_accesses                        0                       # DTB read accesses
system.cpu.itb.write_hits                           0                       # DTB write hits
system.cpu.itb.write_misses                         0                       # DTB write misses
system.cpu.itb.write_acv                            0                       # DTB write access violations
system.cpu.itb.write_accesses                       0                       # DTB write accesses
system.cpu.itb.data_hits                            0                       # DTB hits
system.cpu.itb.data_misses                          0                       # DTB misses
system.cpu.itb.data_acv                             0                       # DTB access violations
system.cpu.itb.data_accesses                        0                       # DTB accesses
system.cpu.workload.numSyscalls                    10                       # Number of system calls
system.cpu.pwrStateResidencyTicks::ON        79525000                       # Cumulative time (in ticks) in various power states
system.cpu.numCycles                            79525                       # number of cpu cycles simulated
system.cpu.numWorkItemsStarted                      0                       # number of work items this cpu started
system.cpu.numWorkItemsCompleted                    0                       # number of work items this cpu completed
system.cpu.committedInsts                        7764                       # Number of instructions committed
system.cpu.committedOps                          7764                       # Number of ops (including micro ops) committed
system.cpu.num_int_alu_accesses                  7679                       # Number of integer alu accesses
system.cpu.num_fp_alu_accesses                     17                       # Number of float alu accesses
system.cpu.num_vec_alu_accesses                     0                       # Number of vector alu accesses
system.cpu.num_func_calls                         259                       # number of times a function call or return occured
system.cpu.num_conditional_control_insts          906                       # number of instructions that are conditional controls
system.cpu.num_int_insts                         7679                       # number of integer instructions
system.cpu.num_fp_insts                            17                       # number of float instructions
system.cpu.num_vec_insts                            0                       # number of vector instructions
system.cpu.num_int_register_reads               10227                       # number of times the integer registers were read
system.cpu.num_int_register_writes               5586                       # number of times the integer registers were written
system.cpu.num_fp_register_reads                   14                       # number of times the floating registers were read
system.cpu.num_fp_register_writes                   5                       # number of times the floating registers were written
system.cpu.num_vec_register_reads                   0                       # number of times the vector registers were read
system.cpu.num_vec_register_writes                  0                       # number of times the vector registers were written
system.cpu.num_mem_refs                          2574                       # number of memory refs
system.cpu.num_load_insts                        1536                       # Number of load instructions
system.cpu.num_store_insts                       1038                       # Number of store instructions
system.cpu.num_idle_cycles                          0                       # Number of idle cycles
system.cpu.num_busy_cycles                      79525                       # Number of busy cycles
system.cpu.not_idle_fraction                        1                       # Percentage of non-idle cycles
system.cpu.idle_fraction                            0                       # Percentage of idle cycles
system.cpu.Branches                              1240                       # Number of branches fetched
system.cpu.op_class::No_OpClass                    22      0.28%      0.28% # Class of executed instruction
system.cpu.op_class::IntAlu                      5175     66.55%     66.83% # Class of executed instruction
system.cpu.op_class::IntMult                        1      0.01%     66.85% # Class of executed instruction
system.cpu.op_class::IntDiv                         0      0.00%     66.85% # Class of executed instruction
system.cpu.op_class::FloatAdd                       3      0.04%     66.89% # Class of executed instruction
system.cpu.op_class::FloatCmp                       1      0.01%     66.90% # Class of executed instruction
system.cpu.op_class::FloatCvt                       0      0.00%     66.90% # Class of executed instruction
system.cpu.op_class::FloatMult                      0      0.00%     66.90% # Class of executed instruction
system.cpu.op_class::FloatMultAcc                   0      0.00%     66.90% # Class of executed instruction
system.cpu.op_class::FloatDiv                       0      0.00%     66.90% # Class of executed instruction
system.cpu.op_class::FloatMisc                      0      0.00%     66.90% # Class of executed instruction
system.cpu.op_class::FloatSqrt                      0      0.00%     66.90% # Class of executed instruction
system.cpu.op_class::SimdAdd                        0      0.00%     66.90% # Class of executed instruction
system.cpu.op_class::SimdAddAcc                     0      0.00%     66.90% # Class of executed instruction
system.cpu.op_class::SimdAlu                        0      0.00%     66.90% # Class of executed instruction
system.cpu.op_class::SimdCmp                        0      0.00%     66.90% # Class of executed instruction
system.cpu.op_class::SimdCvt                        0      0.00%     66.90% # Class of executed instruction
system.cpu.op_class::SimdMisc                       0      0.00%     66.90% # Class of executed instruction
system.cpu.op_class::SimdMult                       0      0.00%     66.90% # Class of executed instruction
system.cpu.op_class::SimdMultAcc                    0      0.00%     66.90% # Class of executed instruction
system.cpu.op_class::SimdShift                      0      0.00%     66.90% # Class of executed instruction
system.cpu.op_class::SimdShiftAcc                   0      0.00%     66.90% # Class of executed instruction
system.cpu.op_class::SimdSqrt                       0      0.00%     66.90% # Class of executed instruction
system.cpu.op_class::SimdFloatAdd                   0      0.00%     66.90% # Class of executed instruction
system.cpu.op_class::SimdFloatAlu                   0      0.00%     66.90% # Class of executed instruction
system.cpu.op_class::SimdFloatCmp                   0      0.00%     66.90% # Class of executed instruction
system.cpu.op_class::SimdFloatCvt                   0      0.00%     66.90% # Class of executed instruction
system.cpu.op_class::SimdFloatDiv                   0      0.00%     66.90% # Class of executed instruction
system.cpu.op_class::SimdFloatMisc                  0      0.00%     66.90% # Class of executed instruction
system.cpu.op_class::SimdFloatMult                  0      0.00%     66.90% # Class of executed instruction
system.cpu.op_class::SimdFloatMultAcc               0      0.00%     66.90% # Class of executed instruction
system.cpu.op_class::SimdFloatSqrt                  0      0.00%     66.90% # Class of executed instruction
system.cpu.op_class::MemRead                     1533     19.71%     86.61% # Class of executed instruction
system.cpu.op_class::MemWrite                    1028     13.22%     99.83% # Class of executed instruction
system.cpu.op_class::FloatMemRead                   3      0.04%     99.87% # Class of executed instruction
system.cpu.op_class::FloatMemWrite                 10      0.13%    100.00% # Class of executed instruction
system.cpu.op_class::IprAccess                      0      0.00%    100.00% # Class of executed instruction
system.cpu.op_class::InstPrefetch                   0      0.00%    100.00% # Class of executed instruction
system.cpu.op_class::total                       7776                       # Class of executed instruction
system.membus.snoop_filter.tot_requests             0                       # Total number of requests made to the snoop filter.
system.membus.snoop_filter.hit_single_requests            0                       # Number of requests hitting in the snoop filter with a single holder of the requested data.
system.membus.snoop_filter.hit_multi_requests            0                       # Number of requests hitting in the snoop filter with multiple (>1) holders of the requested data.
system.membus.snoop_filter.tot_snoops               0                       # Total number of snoops made to the snoop filter.
system.membus.snoop_filter.hit_single_snoops            0                       # Number of snoops hitting in the snoop filter with a single holder of the requested data.
system.membus.snoop_filter.hit_multi_snoops            0                       # Number of snoops hitting in the snoop filter with multiple (>1) holders of the requested data.
system.membus.pwrStateResidencyTicks::UNDEFINED     79525000                       # Cumulative time (in ticks) in various power states
system.membus.trans_dist::ReadReq                1367                       # Transaction distribution
system.membus.trans_dist::ReadResp               1367                       # Transaction distribution
system.membus.trans_dist::WritebackDirty         1351                       # Transaction distribution
system.membus.pkt_count_system.cache.mem_side::system.mem_ctrl.port         4085                       # Packet count per connected master and slave (bytes)
system.membus.pkt_count::total                   4085                       # Packet count per connected master and slave (bytes)
system.membus.pkt_size_system.cache.mem_side::system.mem_ctrl.port       173952                       # Cumulative packet size per connected master and slave (bytes)
system.membus.pkt_size::total                  173952                       # Cumulative packet size per connected master and slave (bytes)
system.membus.snoops                                0                       # Total snoops (count)
system.membus.snoopTraffic                          0                       # Total snoop traffic (bytes)
system.membus.snoop_fanout::samples              1367                       # Request fanout histogram
system.membus.snoop_fanout::mean                    0                       # Request fanout histogram
system.membus.snoop_fanout::stdev                   0                       # Request fanout histogram
system.membus.snoop_fanout::underflows              0      0.00%      0.00% # Request fanout histogram
system.membus.snoop_fanout::0                    1367    100.00%    100.00% # Request fanout histogram
system.membus.snoop_fanout::overflows               0      0.00%    100.00% # Request fanout histogram
system.membus.snoop_fanout::min_value               0                       # Request fanout histogram
system.membus.snoop_fanout::max_value               0                       # Request fanout histogram
system.membus.snoop_fanout::total                1367                       # Request fanout histogram
system.membus.reqLayer0.occupancy             8122000                       # Layer occupancy (ticks)
system.membus.reqLayer0.utilization              10.2                       # Layer utilization (%)
system.membus.respLayer0.occupancy            7108000                       # Layer occupancy (ticks)
system.membus.respLayer0.utilization              8.9                       # Layer utilization (%)

---------- End Simulation Statistics   ----------
