
---------- Begin Simulation Statistics ----------
sim_seconds                                  0.000199                       # Number of seconds simulated
sim_ticks                                   199008000                       # Number of ticks simulated
final_tick                                  199008000                       # Number of ticks from beginning of simulation (restored from checkpoints and never reset)
sim_freq                                 1000000000000                       # Frequency of simulated ticks
host_inst_rate                                 347258                       # Simulator instruction rate (inst/s)
host_op_rate                                   346839                       # Simulator op (including micro ops) rate (op/s)
host_tick_rate                             8880717569                       # Simulator tick rate (ticks/s)
host_mem_usage                                8484352                       # Number of bytes of host memory used
host_seconds                                     0.02                       # Real time elapsed on the host
sim_insts                                        7764                       # Number of instructions simulated
sim_ops                                          7764                       # Number of ops (including micro ops) simulated
system.clk_domain.voltage_domain.voltage            1                       # Voltage in Volts
system.clk_domain.clock                          1000                       # Clock period in ticks
system.mem_ctrl.pwrStateResidencyTicks::UNDEFINED    199008000                       # Cumulative time (in ticks) in various power states
system.mem_ctrl.bytes_read::cpu.inst           232064                       # Number of bytes read from this memory
system.mem_ctrl.bytes_read::cpu.data           159616                       # Number of bytes read from this memory
system.mem_ctrl.bytes_read::total              391680                       # Number of bytes read from this memory
system.mem_ctrl.bytes_inst_read::cpu.inst       232064                       # Number of instructions bytes read from this memory
system.mem_ctrl.bytes_inst_read::total         232064                       # Number of instructions bytes read from this memory
system.mem_ctrl.bytes_written::writebacks       390656                       # Number of bytes written to this memory
system.mem_ctrl.bytes_written::total           390656                       # Number of bytes written to this memory
system.mem_ctrl.num_reads::cpu.inst              3626                       # Number of read requests responded to by this memory
system.mem_ctrl.num_reads::cpu.data              2494                       # Number of read requests responded to by this memory
system.mem_ctrl.num_reads::total                 6120                       # Number of read requests responded to by this memory
system.mem_ctrl.num_writes::writebacks           6104                       # Number of write requests responded to by this memory
system.mem_ctrl.num_writes::total                6104                       # Number of write requests responded to by this memory
system.mem_ctrl.bw_read::cpu.inst          1166103875                       # Total read bandwidth from this memory (bytes/s)
system.mem_ctrl.bw_read::cpu.data           802058209                       # Total read bandwidth from this memory (bytes/s)
system.mem_ctrl.bw_read::total             1968162084                       # Total read bandwidth from this memory (bytes/s)
system.mem_ctrl.bw_inst_read::cpu.inst     1166103875                       # Instruction read bandwidth from this memory (bytes/s)
system.mem_ctrl.bw_inst_read::total        1166103875                       # Instruction read bandwidth from this memory (bytes/s)
system.mem_ctrl.bw_write::writebacks       1963016562                       # Write bandwidth from this memory (bytes/s)
system.mem_ctrl.bw_write::total            1963016562                       # Write bandwidth from this memory (bytes/s)
system.mem_ctrl.bw_total::writebacks       1963016562                       # Total bandwidth to/from this memory (bytes/s)
system.mem_ctrl.bw_total::cpu.inst         1166103875                       # Total bandwidth to/from this memory (bytes/s)
system.mem_ctrl.bw_total::cpu.data          802058209                       # Total bandwidth to/from this memory (bytes/s)
system.mem_ctrl.bw_total::total            3931178646                       # Total bandwidth to/from this memory (bytes/s)
system.mem_ctrl.readReqs                         6120                       # Number of read requests accepted
system.mem_ctrl.writeReqs                        6104                       # Number of write requests accepted
system.mem_ctrl.readBursts                       6120                       # Number of DRAM read bursts, including those serviced by the write queue
system.mem_ctrl.writeBursts                      6104                       # Number of DRAM write bursts, including those merged in the write queue
system.mem_ctrl.bytesReadDRAM                   60416                       # Total number of bytes read from DRAM
system.mem_ctrl.bytesReadWrQ                   331264                       # Total number of bytes read from write queue
system.mem_ctrl.bytesWritten                    60032                       # Total number of bytes written to DRAM
system.mem_ctrl.bytesReadSys                   391680                       # Total read bytes from the system interface side
system.mem_ctrl.bytesWrittenSys                390656                       # Total written bytes from the system interface side
system.mem_ctrl.servicedByWrQ                    5176                       # Number of DRAM read bursts serviced by the write queue
system.mem_ctrl.mergedWrBursts                   5143                       # Number of DRAM write bursts merged with an existing one
system.mem_ctrl.neitherReadNorWriteReqs             0                       # Number of requests that are neither read nor write
system.mem_ctrl.perBankRdBursts::0                 90                       # Per bank write bursts
system.mem_ctrl.perBankRdBursts::1                 28                       # Per bank write bursts
system.mem_ctrl.perBankRdBursts::2                236                       # Per bank write bursts
system.mem_ctrl.perBankRdBursts::3                167                       # Per bank write bursts
system.mem_ctrl.perBankRdBursts::4                 89                       # Per bank write bursts
system.mem_ctrl.perBankRdBursts::5                 53                       # Per bank write bursts
system.mem_ctrl.perBankRdBursts::6                 12                       # Per bank write bursts
system.mem_ctrl.perBankRdBursts::7                  0                       # Per bank write bursts
system.mem_ctrl.perBankRdBursts::8                  3                       # Per bank write bursts
system.mem_ctrl.perBankRdBursts::9                 92                       # Per bank write bursts
system.mem_ctrl.perBankRdBursts::10                14                       # Per bank write bursts
system.mem_ctrl.perBankRdBursts::11                10                       # Per bank write bursts
system.mem_ctrl.perBankRdBursts::12                 5                       # Per bank write bursts
system.mem_ctrl.perBankRdBursts::13                42                       # Per bank write bursts
system.mem_ctrl.perBankRdBursts::14                56                       # Per bank write bursts
system.mem_ctrl.perBankRdBursts::15                47                       # Per bank write bursts
system.mem_ctrl.perBankWrBursts::0                 90                       # Per bank write bursts
system.mem_ctrl.perBankWrBursts::1                 30                       # Per bank write bursts
system.mem_ctrl.perBankWrBursts::2                233                       # Per bank write bursts
system.mem_ctrl.perBankWrBursts::3                166                       # Per bank write bursts
system.mem_ctrl.perBankWrBursts::4                 88                       # Per bank write bursts
system.mem_ctrl.perBankWrBursts::5                 55                       # Per bank write bursts
system.mem_ctrl.perBankWrBursts::6                 12                       # Per bank write bursts
system.mem_ctrl.perBankWrBursts::7                  0                       # Per bank write bursts
system.mem_ctrl.perBankWrBursts::8                  3                       # Per bank write bursts
system.mem_ctrl.perBankWrBursts::9                 93                       # Per bank write bursts
system.mem_ctrl.perBankWrBursts::10                14                       # Per bank write bursts
system.mem_ctrl.perBankWrBursts::11                10                       # Per bank write bursts
system.mem_ctrl.perBankWrBursts::12                 5                       # Per bank write bursts
system.mem_ctrl.perBankWrBursts::13                43                       # Per bank write bursts
system.mem_ctrl.perBankWrBursts::14                51                       # Per bank write bursts
system.mem_ctrl.perBankWrBursts::15                45                       # Per bank write bursts
system.mem_ctrl.numRdRetry                          0                       # Number of times read queue was full causing retry
system.mem_ctrl.numWrRetry                          0                       # Number of times write queue was full causing retry
system.mem_ctrl.totGap                      199004000                       # Total gap between requests
system.mem_ctrl.readPktSize::0                      0                       # Read request sizes (log2)
system.mem_ctrl.readPktSize::1                      0                       # Read request sizes (log2)
system.mem_ctrl.readPktSize::2                      0                       # Read request sizes (log2)
system.mem_ctrl.readPktSize::3                      0                       # Read request sizes (log2)
system.mem_ctrl.readPktSize::4                      0                       # Read request sizes (log2)
system.mem_ctrl.readPktSize::5                      0                       # Read request sizes (log2)
system.mem_ctrl.readPktSize::6                   6120                       # Read request sizes (log2)
system.mem_ctrl.writePktSize::0                     0                       # Write request sizes (log2)
system.mem_ctrl.writePktSize::1                     0                       # Write request sizes (log2)
system.mem_ctrl.writePktSize::2                     0                       # Write request sizes (log2)
system.mem_ctrl.writePktSize::3                     0                       # Write request sizes (log2)
system.mem_ctrl.writePktSize::4                     0                       # Write request sizes (log2)
system.mem_ctrl.writePktSize::5                     0                       # Write request sizes (log2)
system.mem_ctrl.writePktSize::6                  6104                       # Write request sizes (log2)
system.mem_ctrl.rdQLenPdf::0                      944                       # What read queue length does an incoming req see
system.mem_ctrl.rdQLenPdf::1                        0                       # What read queue length does an incoming req see
system.mem_ctrl.rdQLenPdf::2                        0                       # What read queue length does an incoming req see
system.mem_ctrl.rdQLenPdf::3                        0                       # What read queue length does an incoming req see
system.mem_ctrl.rdQLenPdf::4                        0                       # What read queue length does an incoming req see
system.mem_ctrl.rdQLenPdf::5                        0                       # What read queue length does an incoming req see
system.mem_ctrl.rdQLenPdf::6                        0                       # What read queue length does an incoming req see
system.mem_ctrl.rdQLenPdf::7                        0                       # What read queue length does an incoming req see
system.mem_ctrl.rdQLenPdf::8                        0                       # What read queue length does an incoming req see
system.mem_ctrl.rdQLenPdf::9                        0                       # What read queue length does an incoming req see
system.mem_ctrl.rdQLenPdf::10                       0                       # What read queue length does an incoming req see
system.mem_ctrl.rdQLenPdf::11                       0                       # What read queue length does an incoming req see
system.mem_ctrl.rdQLenPdf::12                       0                       # What read queue length does an incoming req see
system.mem_ctrl.rdQLenPdf::13                       0                       # What read queue length does an incoming req see
system.mem_ctrl.rdQLenPdf::14                       0                       # What read queue length does an incoming req see
system.mem_ctrl.rdQLenPdf::15                       0                       # What read queue length does an incoming req see
system.mem_ctrl.rdQLenPdf::16                       0                       # What read queue length does an incoming req see
system.mem_ctrl.rdQLenPdf::17                       0                       # What read queue length does an incoming req see
system.mem_ctrl.rdQLenPdf::18                       0                       # What read queue length does an incoming req see
system.mem_ctrl.rdQLenPdf::19                       0                       # What read queue length does an incoming req see
system.mem_ctrl.rdQLenPdf::20                       0                       # What read queue length does an incoming req see
system.mem_ctrl.rdQLenPdf::21                       0                       # What read queue length does an incoming req see
system.mem_ctrl.rdQLenPdf::22                       0                       # What read queue length does an incoming req see
system.mem_ctrl.rdQLenPdf::23                       0                       # What read queue length does an incoming req see
system.mem_ctrl.rdQLenPdf::24                       0                       # What read queue length does an incoming req see
system.mem_ctrl.rdQLenPdf::25                       0                       # What read queue length does an incoming req see
system.mem_ctrl.rdQLenPdf::26                       0                       # What read queue length does an incoming req see
system.mem_ctrl.rdQLenPdf::27                       0                       # What read queue length does an incoming req see
system.mem_ctrl.rdQLenPdf::28                       0                       # What read queue length does an incoming req see
system.mem_ctrl.rdQLenPdf::29                       0                       # What read queue length does an incoming req see
system.mem_ctrl.rdQLenPdf::30                       0                       # What read queue length does an incoming req see
system.mem_ctrl.rdQLenPdf::31                       0                       # What read queue length does an incoming req see
system.mem_ctrl.wrQLenPdf::0                        1                       # What write queue length does an incoming req see
system.mem_ctrl.wrQLenPdf::1                        1                       # What write queue length does an incoming req see
system.mem_ctrl.wrQLenPdf::2                        1                       # What write queue length does an incoming req see
system.mem_ctrl.wrQLenPdf::3                        1                       # What write queue length does an incoming req see
system.mem_ctrl.wrQLenPdf::4                        1                       # What write queue length does an incoming req see
system.mem_ctrl.wrQLenPdf::5                        1                       # What write queue length does an incoming req see
system.mem_ctrl.wrQLenPdf::6                        1                       # What write queue length does an incoming req see
system.mem_ctrl.wrQLenPdf::7                        1                       # What write queue length does an incoming req see
system.mem_ctrl.wrQLenPdf::8                        1                       # What write queue length does an incoming req see
system.mem_ctrl.wrQLenPdf::9                        1                       # What write queue length does an incoming req see
system.mem_ctrl.wrQLenPdf::10                       1                       # What write queue length does an incoming req see
system.mem_ctrl.wrQLenPdf::11                       1                       # What write queue length does an incoming req see
system.mem_ctrl.wrQLenPdf::12                       1                       # What write queue length does an incoming req see
system.mem_ctrl.wrQLenPdf::13                       1                       # What write queue length does an incoming req see
system.mem_ctrl.wrQLenPdf::14                       1                       # What write queue length does an incoming req see
system.mem_ctrl.wrQLenPdf::15                      15                       # What write queue length does an incoming req see
system.mem_ctrl.wrQLenPdf::16                      18                       # What write queue length does an incoming req see
system.mem_ctrl.wrQLenPdf::17                      47                       # What write queue length does an incoming req see
system.mem_ctrl.wrQLenPdf::18                      60                       # What write queue length does an incoming req see
system.mem_ctrl.wrQLenPdf::19                      60                       # What write queue length does an incoming req see
system.mem_ctrl.wrQLenPdf::20                      57                       # What write queue length does an incoming req see
system.mem_ctrl.wrQLenPdf::21                      57                       # What write queue length does an incoming req see
system.mem_ctrl.wrQLenPdf::22                      57                       # What write queue length does an incoming req see
system.mem_ctrl.wrQLenPdf::23                      67                       # What write queue length does an incoming req see
system.mem_ctrl.wrQLenPdf::24                      60                       # What write queue length does an incoming req see
system.mem_ctrl.wrQLenPdf::25                      56                       # What write queue length does an incoming req see
system.mem_ctrl.wrQLenPdf::26                      56                       # What write queue length does an incoming req see
system.mem_ctrl.wrQLenPdf::27                      56                       # What write queue length does an incoming req see
system.mem_ctrl.wrQLenPdf::28                      56                       # What write queue length does an incoming req see
system.mem_ctrl.wrQLenPdf::29                      56                       # What write queue length does an incoming req see
system.mem_ctrl.wrQLenPdf::30                      56                       # What write queue length does an incoming req see
system.mem_ctrl.wrQLenPdf::31                      56                       # What write queue length does an incoming req see
system.mem_ctrl.wrQLenPdf::32                      56                       # What write queue length does an incoming req see
system.mem_ctrl.wrQLenPdf::33                       0                       # What write queue length does an incoming req see
system.mem_ctrl.wrQLenPdf::34                       0                       # What write queue length does an incoming req see
system.mem_ctrl.wrQLenPdf::35                       0                       # What write queue length does an incoming req see
system.mem_ctrl.wrQLenPdf::36                       0                       # What write queue length does an incoming req see
system.mem_ctrl.wrQLenPdf::37                       0                       # What write queue length does an incoming req see
system.mem_ctrl.wrQLenPdf::38                       0                       # What write queue length does an incoming req see
system.mem_ctrl.wrQLenPdf::39                       0                       # What write queue length does an incoming req see
system.mem_ctrl.wrQLenPdf::40                       0                       # What write queue length does an incoming req see
system.mem_ctrl.wrQLenPdf::41                       0                       # What write queue length does an incoming req see
system.mem_ctrl.wrQLenPdf::42                       0                       # What write queue length does an incoming req see
system.mem_ctrl.wrQLenPdf::43                       0                       # What write queue length does an incoming req see
system.mem_ctrl.wrQLenPdf::44                       0                       # What write queue length does an incoming req see
system.mem_ctrl.wrQLenPdf::45                       0                       # What write queue length does an incoming req see
system.mem_ctrl.wrQLenPdf::46                       0                       # What write queue length does an incoming req see
system.mem_ctrl.wrQLenPdf::47                       0                       # What write queue length does an incoming req see
system.mem_ctrl.wrQLenPdf::48                       0                       # What write queue length does an incoming req see
system.mem_ctrl.wrQLenPdf::49                       0                       # What write queue length does an incoming req see
system.mem_ctrl.wrQLenPdf::50                       0                       # What write queue length does an incoming req see
system.mem_ctrl.wrQLenPdf::51                       0                       # What write queue length does an incoming req see
system.mem_ctrl.wrQLenPdf::52                       0                       # What write queue length does an incoming req see
system.mem_ctrl.wrQLenPdf::53                       0                       # What write queue length does an incoming req see
system.mem_ctrl.wrQLenPdf::54                       0                       # What write queue length does an incoming req see
system.mem_ctrl.wrQLenPdf::55                       0                       # What write queue length does an incoming req see
system.mem_ctrl.wrQLenPdf::56                       0                       # What write queue length does an incoming req see
system.mem_ctrl.wrQLenPdf::57                       0                       # What write queue length does an incoming req see
system.mem_ctrl.wrQLenPdf::58                       0                       # What write queue length does an incoming req see
system.mem_ctrl.wrQLenPdf::59                       0                       # What write queue length does an incoming req see
system.mem_ctrl.wrQLenPdf::60                       0                       # What write queue length does an incoming req see
system.mem_ctrl.wrQLenPdf::61                       0                       # What write queue length does an incoming req see
system.mem_ctrl.wrQLenPdf::62                       0                       # What write queue length does an incoming req see
system.mem_ctrl.wrQLenPdf::63                       0                       # What write queue length does an incoming req see
system.mem_ctrl.bytesPerActivate::samples          320                       # Bytes accessed per row activation
system.mem_ctrl.bytesPerActivate::mean     374.400000                       # Bytes accessed per row activation
system.mem_ctrl.bytesPerActivate::gmean    236.291412                       # Bytes accessed per row activation
system.mem_ctrl.bytesPerActivate::stdev    338.974504                       # Bytes accessed per row activation
system.mem_ctrl.bytesPerActivate::0-127            80     25.00%     25.00% # Bytes accessed per row activation
system.mem_ctrl.bytesPerActivate::128-255           78     24.38%     49.38% # Bytes accessed per row activation
system.mem_ctrl.bytesPerActivate::256-383           41     12.81%     62.19% # Bytes accessed per row activation
system.mem_ctrl.bytesPerActivate::384-511           22      6.88%     69.06% # Bytes accessed per row activation
system.mem_ctrl.bytesPerActivate::512-639           21      6.56%     75.62% # Bytes accessed per row activation
system.mem_ctrl.bytesPerActivate::640-767           13      4.06%     79.69% # Bytes accessed per row activation
system.mem_ctrl.bytesPerActivate::768-895           16      5.00%     84.69% # Bytes accessed per row activation
system.mem_ctrl.bytesPerActivate::896-1023            7      2.19%     86.88% # Bytes accessed per row activation
system.mem_ctrl.bytesPerActivate::1024-1151           42     13.12%    100.00% # Bytes accessed per row activation
system.mem_ctrl.bytesPerActivate::total           320                       # Bytes accessed per row activation
system.mem_ctrl.rdPerTurnAround::samples           56                       # Reads before turning the bus around for writes
system.mem_ctrl.rdPerTurnAround::mean       16.750000                       # Reads before turning the bus around for writes
system.mem_ctrl.rdPerTurnAround::gmean      16.463744                       # Reads before turning the bus around for writes
system.mem_ctrl.rdPerTurnAround::stdev       4.386964                       # Reads before turning the bus around for writes
system.mem_ctrl.rdPerTurnAround::14-15             15     26.79%     26.79% # Reads before turning the bus around for writes
system.mem_ctrl.rdPerTurnAround::16-17             31     55.36%     82.14% # Reads before turning the bus around for writes
system.mem_ctrl.rdPerTurnAround::18-19              9     16.07%     98.21% # Reads before turning the bus around for writes
system.mem_ctrl.rdPerTurnAround::48-49              1      1.79%    100.00% # Reads before turning the bus around for writes
system.mem_ctrl.rdPerTurnAround::total             56                       # Reads before turning the bus around for writes
system.mem_ctrl.wrPerTurnAround::samples           56                       # Writes before turning the bus around for reads
system.mem_ctrl.wrPerTurnAround::mean       16.750000                       # Writes before turning the bus around for reads
system.mem_ctrl.wrPerTurnAround::gmean      16.712464                       # Writes before turning the bus around for reads
system.mem_ctrl.wrPerTurnAround::stdev       1.163849                       # Writes before turning the bus around for reads
system.mem_ctrl.wrPerTurnAround::16                36     64.29%     64.29% # Writes before turning the bus around for reads
system.mem_ctrl.wrPerTurnAround::17                 6     10.71%     75.00% # Writes before turning the bus around for reads
system.mem_ctrl.wrPerTurnAround::18                 8     14.29%     89.29% # Writes before turning the bus around for reads
system.mem_ctrl.wrPerTurnAround::19                 4      7.14%     96.43% # Writes before turning the bus around for reads
system.mem_ctrl.wrPerTurnAround::20                 2      3.57%    100.00% # Writes before turning the bus around for reads
system.mem_ctrl.wrPerTurnAround::total             56                       # Writes before turning the bus around for reads
system.mem_ctrl.totQLat                      18101750                       # Total ticks spent queuing
system.mem_ctrl.totMemAccLat                 35801750                       # Total ticks spent from burst creation until serviced by the DRAM
system.mem_ctrl.totBusLat                     4720000                       # Total ticks spent in databus transfers
system.mem_ctrl.avgQLat                      19175.58                       # Average queueing delay per DRAM burst
system.mem_ctrl.avgBusLat                     5000.00                       # Average bus latency per DRAM burst
system.mem_ctrl.avgMemAccLat                 37925.58                       # Average memory access latency per DRAM burst
system.mem_ctrl.avgRdBW                        303.59                       # Average DRAM read bandwidth in MiByte/s
system.mem_ctrl.avgWrBW                        301.66                       # Average achieved write bandwidth in MiByte/s
system.mem_ctrl.avgRdBWSys                    1968.16                       # Average system read bandwidth in MiByte/s
system.mem_ctrl.avgWrBWSys                    1963.02                       # Average system write bandwidth in MiByte/s
system.mem_ctrl.peakBW                       12800.00                       # Theoretical peak bandwidth in MiByte/s
system.mem_ctrl.busUtil                          4.73                       # Data bus utilization in percentage
system.mem_ctrl.busUtilRead                      2.37                       # Data bus utilization in percentage for reads
system.mem_ctrl.busUtilWrite                     2.36                       # Data bus utilization in percentage for writes
system.mem_ctrl.avgRdQLen                        1.00                       # Average read queue length when enqueuing
system.mem_ctrl.avgWrQLen                       25.39                       # Average write queue length when enqueuing
system.mem_ctrl.readRowHits                       684                       # Number of row buffer hits during reads
system.mem_ctrl.writeRowHits                      874                       # Number of row buffer hits during writes
system.mem_ctrl.readRowHitRate                  72.46                       # Row buffer hit rate for reads
system.mem_ctrl.writeRowHitRate                 90.95                       # Row buffer hit rate for writes
system.mem_ctrl.avgGap                       16279.78                       # Average gap between requests
system.mem_ctrl.pageHitRate                     81.78                       # Row buffer hit rate, read and write combined
system.mem_ctrl_0.actEnergy                   1720740                       # Energy for activate commands per rank (pJ)
system.mem_ctrl_0.preEnergy                    910800                       # Energy for precharge commands per rank (pJ)
system.mem_ctrl_0.readEnergy                  4819500                       # Energy for read commands per rank (pJ)
system.mem_ctrl_0.writeEnergy                 3518280                       # Energy for write commands per rank (pJ)
system.mem_ctrl_0.refreshEnergy          14136720.000000                       # Energy for refresh commands per rank (pJ)
system.mem_ctrl_0.actBackEnergy              16815570                       # Energy for active background per rank (pJ)
system.mem_ctrl_0.preBackEnergy                381600                       # Energy for precharge background per rank (pJ)
system.mem_ctrl_0.actPowerDownEnergy         54197310                       # Energy for active power-down per rank (pJ)
system.mem_ctrl_0.prePowerDownEnergy          6009600                       # Energy for precharge power-down per rank (pJ)
system.mem_ctrl_0.selfRefreshEnergy           6944640                       # Energy for self refresh per rank (pJ)
system.mem_ctrl_0.totalEnergy               109454760                       # Total energy per rank (pJ)
system.mem_ctrl_0.averagePower             549.999736                       # Core power per rank (mW)
system.mem_ctrl_0.totalIdleTime             161010500                       # Total Idle time Per DRAM Rank
system.mem_ctrl_0.memoryStateTime::IDLE        367000                       # Time in different power states
system.mem_ctrl_0.memoryStateTime::REF        5986000                       # Time in different power states
system.mem_ctrl_0.memoryStateTime::SREF      26635250                       # Time in different power states
system.mem_ctrl_0.memoryStateTime::PRE_PDN     15647750                       # Time in different power states
system.mem_ctrl_0.memoryStateTime::ACT       31511250                       # Time in different power states
system.mem_ctrl_0.memoryStateTime::ACT_PDN    118860750                       # Time in different power states
system.mem_ctrl_1.actEnergy                    592620                       # Energy for activate commands per rank (pJ)
system.mem_ctrl_1.preEnergy                    303600                       # Energy for precharge commands per rank (pJ)
system.mem_ctrl_1.readEnergy                  1920660                       # Energy for read commands per rank (pJ)
system.mem_ctrl_1.writeEnergy                 1378080                       # Energy for write commands per rank (pJ)
system.mem_ctrl_1.refreshEnergy          14136720.000000                       # Energy for refresh commands per rank (pJ)
system.mem_ctrl_1.actBackEnergy              12158100                       # Energy for active background per rank (pJ)
system.mem_ctrl_1.preBackEnergy                539040                       # Energy for precharge background per rank (pJ)
system.mem_ctrl_1.actPowerDownEnergy         49833960                       # Energy for active power-down per rank (pJ)
system.mem_ctrl_1.prePowerDownEnergy         13868160                       # Energy for precharge power-down per rank (pJ)
system.mem_ctrl_1.selfRefreshEnergy           6682440                       # Energy for self refresh per rank (pJ)
system.mem_ctrl_1.totalEnergy               101413380                       # Total energy per rank (pJ)
system.mem_ctrl_1.averagePower             509.592568                       # Core power per rank (mW)
system.mem_ctrl_1.totalIdleTime             169995250                       # Total Idle time Per DRAM Rank
system.mem_ctrl_1.memoryStateTime::IDLE        792000                       # Time in different power states
system.mem_ctrl_1.memoryStateTime::REF        5986000                       # Time in different power states
system.mem_ctrl_1.memoryStateTime::SREF      25542250                       # Time in different power states
system.mem_ctrl_1.memoryStateTime::PRE_PDN     36110000                       # Time in different power states
system.mem_ctrl_1.memoryStateTime::ACT       21313500                       # Time in different power states
system.mem_ctrl_1.memoryStateTime::ACT_PDN    109264250                       # Time in different power states
system.pwrStateResidencyTicks::UNDEFINED    199008000                       # Cumulative time (in ticks) in various power states
system.cache.pwrStateResidencyTicks::UNDEFINED    199008000                       # Cumulative time (in ticks) in various power states
system.cache.hits                                4218                       # Number of hits
system.cache.misses                              6120                       # Number of misses
system.cache.missLatency::samples                6120                       # Ticks for misses to the cache
system.cache.missLatency::mean           30828.431373                       # Ticks for misses to the cache
system.cache.missLatency::gmean          27542.691513                       # Ticks for misses to the cache
system.cache.missLatency::stdev          24371.766036                       # Ticks for misses to the cache
system.cache.missLatency::0-65535                5842     95.46%     95.46% # Ticks for misses to the cache
system.cache.missLatency::65536-131071            233      3.81%     99.26% # Ticks for misses to the cache
system.cache.missLatency::131072-196607            28      0.46%     99.72% # Ticks for misses to the cache
system.cache.missLatency::196608-262143             1      0.02%     99.74% # Ticks for misses to the cache
system.cache.missLatency::262144-327679             8      0.13%     99.87% # Ticks for misses to the cache
system.cache.missLatency::327680-393215             5      0.08%     99.95% # Ticks for misses to the cache
system.cache.missLatency::393216-458751             1      0.02%     99.97% # Ticks for misses to the cache
system.cache.missLatency::458752-524287             0      0.00%     99.97% # Ticks for misses to the cache
system.cache.missLatency::524288-589823             0      0.00%     99.97% # Ticks for misses to the cache
system.cache.missLatency::589824-655359             2      0.03%    100.00% # Ticks for misses to the cache
system.cache.missLatency::655360-720895             0      0.00%    100.00% # Ticks for misses to the cache
system.cache.missLatency::720896-786431             0      0.00%    100.00% # Ticks for misses to the cache
system.cache.missLatency::786432-851967             0      0.00%    100.00% # Ticks for misses to the cache
system.cache.missLatency::851968-917503             0      0.00%    100.00% # Ticks for misses to the cache
system.cache.missLatency::917504-983039             0      0.00%    100.00% # Ticks for misses to the cache
system.cache.missLatency::983040-1.04858e+06            0      0.00%    100.00% # Ticks for misses to the cache
system.cache.missLatency::total                  6120                       # Ticks for misses to the cache
system.cache.hitRatio                        0.408009                       # The ratio of hits to the total accesses to the cache
system.cpu.dtb.fetch_hits                           0                       # ITB hits
system.cpu.dtb.fetch_misses                         0                       # ITB misses
system.cpu.dtb.fetch_acv                            0                       # ITB acv
system.cpu.dtb.fetch_accesses                       0                       # ITB accesses
system.cpu.dtb.read_hits                         1526                       # DTB read hits
system.cpu.dtb.read_misses                         10                       # DTB read misses
system.cpu.dtb.read_acv                             0                       # DTB read access violations
system.cpu.dtb.read_accesses                     1536                       # DTB read accesses
system.cpu.dtb.write_hits                        1036                       # DTB write hits
system.cpu.dtb.write_misses                         2                       # DTB write misses
system.cpu.dtb.write_acv                            0                       # DTB write access violations
system.cpu.dtb.write_accesses                    1038                       # DTB write accesses
system.cpu.dtb.data_hits                         2562                       # DTB hits
system.cpu.dtb.data_misses                         12                       # DTB misses
system.cpu.dtb.data_acv                             0                       # DTB access violations
system.cpu.dtb.data_accesses                     2574                       # DTB accesses
system.cpu.itb.fetch_hits                        7777                       # ITB hits
system.cpu.itb.fetch_misses                        18                       # ITB misses
system.cpu.itb.fetch_acv                            0                       # ITB acv
system.cpu.itb.fetch_accesses                    7795                       # ITB accesses
system.cpu.itb.read_hits                            0                       # DTB read hits
system.cpu.itb.read_misses                          0                       # DTB read misses
system.cpu.itb.read_acv                             0                       # DTB read access violations
system.cpu.itb.read_accesses                        0                       # DTB read accesses
system.cpu.itb.write_hits                           0                       # DTB write hits
system.cpu.itb.write_misses                         0                       # DTB write misses
system.cpu.itb.write_acv                            0                       # DTB write access violations
system.cpu.itb.write_accesses                       0                       # DTB write accesses
system.cpu.itb.data_hits                            0                       # DTB hits
system.cpu.itb.data_misses                          0                       # DTB misses
system.cpu.itb.data_acv                             0                       # DTB access violations
system.cpu.itb.data_accesses                        0                       # DTB accesses
system.cpu.workload.numSyscalls                    10                       # Number of system calls
system.cpu.pwrStateResidencyTicks::ON       199008000                       # Cumulative time (in ticks) in various power states
system.cpu.numCycles                           199008                       # number of cpu cycles simulated
system.cpu.numWorkItemsStarted                      0                       # number of work items this cpu started
system.cpu.numWorkItemsCompleted                    0                       # number of work items this cpu completed
system.cpu.committedInsts                        7764                       # Number of instructions committed
system.cpu.committedOps                          7764                       # Number of ops (including micro ops) committed
system.cpu.num_int_alu_accesses                  7679                       # Number of integer alu accesses
system.cpu.num_fp_alu_accesses                     17                       # Number of float alu accesses
system.cpu.num_vec_alu_accesses                     0                       # Number of vector alu accesses
system.cpu.num_func_calls                         259                       # number of times a function call or return occured
system.cpu.num_conditional_control_insts          906                       # number of instructions that are conditional controls
system.cpu.num_int_insts                         7679                       # number of integer instructions
system.cpu.num_fp_insts                            17                       # number of float instructions
system.cpu.num_vec_insts                            0                       # number of vector instructions
system.cpu.num_int_register_reads               10227                       # number of times the integer registers were read
system.cpu.num_int_register_writes               5586                       # number of times the integer registers were written
system.cpu.num_fp_register_reads                   14                       # number of times the floating registers were read
system.cpu.num_fp_register_writes                   5                       # number of times the floating registers were written
system.cpu.num_vec_register_reads                   0                       # number of times the vector registers were read
system.cpu.num_vec_register_writes                  0                       # number of times the vector registers were written
system.cpu.num_mem_refs                          2574                       # number of memory refs
system.cpu.num_load_insts                        1536                       # Number of load instructions
system.cpu.num_store_insts                       1038                       # Number of store instructions
system.cpu.num_idle_cycles                          0                       # Number of idle cycles
system.cpu.num_busy_cycles                     199008                       # Number of busy cycles
system.cpu.not_idle_fraction                        1                       # Percentage of non-idle cycles
system.cpu.idle_fraction                            0                       # Percentage of idle cycles
system.cpu.Branches                              1240                       # Number of branches fetched
system.cpu.op_class::No_OpClass                    22      0.28%      0.28% # Class of executed instruction
system.cpu.op_class::IntAlu                      5175     66.55%     66.83% # Class of executed instruction
system.cpu.op_class::IntMult                        1      0.01%     66.85% # Class of executed instruction
system.cpu.op_class::IntDiv                         0      0.00%     66.85% # Class of executed instruction
system.cpu.op_class::FloatAdd                       3      0.04%     66.89% # Class of executed instruction
system.cpu.op_class::FloatCmp                       1      0.01%     66.90% # Class of executed instruction
system.cpu.op_class::FloatCvt                       0      0.00%     66.90% # Class of executed instruction
system.cpu.op_class::FloatMult                      0      0.00%     66.90% # Class of executed instruction
system.cpu.op_class::FloatMultAcc                   0      0.00%     66.90% # Class of executed instruction
system.cpu.op_class::FloatDiv                       0      0.00%     66.90% # Class of executed instruction
system.cpu.op_class::FloatMisc                      0      0.00%     66.90% # Class of executed instruction
system.cpu.op_class::FloatSqrt                      0      0.00%     66.90% # Class of executed instruction
system.cpu.op_class::SimdAdd                        0      0.00%     66.90% # Class of executed instruction
system.cpu.op_class::SimdAddAcc                     0      0.00%     66.90% # Class of executed instruction
system.cpu.op_class::SimdAlu                        0      0.00%     66.90% # Class of executed instruction
system.cpu.op_class::SimdCmp                        0      0.00%     66.90% # Class of executed instruction
system.cpu.op_class::SimdCvt                        0      0.00%     66.90% # Class of executed instruction
system.cpu.op_class::SimdMisc                       0      0.00%     66.90% # Class of executed instruction
system.cpu.op_class::SimdMult                       0      0.00%     66.90% # Class of executed instruction
system.cpu.op_class::SimdMultAcc                    0      0.00%     66.90% # Class of executed instruction
system.cpu.op_class::SimdShift                      0      0.00%     66.90% # Class of executed instruction
system.cpu.op_class::SimdShiftAcc                   0      0.00%     66.90% # Class of executed instruction
system.cpu.op_class::SimdSqrt                       0      0.00%     66.90% # Class of executed instruction
system.cpu.op_class::SimdFloatAdd                   0      0.00%     66.90% # Class of executed instruction
system.cpu.op_class::SimdFloatAlu                   0      0.00%     66.90% # Class of executed instruction
system.cpu.op_class::SimdFloatCmp                   0      0.00%     66.90% # Class of executed instruction
system.cpu.op_class::SimdFloatCvt                   0      0.00%     66.90% # Class of executed instruction
system.cpu.op_class::SimdFloatDiv                   0      0.00%     66.90% # Class of executed instruction
system.cpu.op_class::SimdFloatMisc                  0      0.00%     66.90% # Class of executed instruction
system.cpu.op_class::SimdFloatMult                  0      0.00%     66.90% # Class of executed instruction
system.cpu.op_class::SimdFloatMultAcc               0      0.00%     66.90% # Class of executed instruction
system.cpu.op_class::SimdFloatSqrt                  0      0.00%     66.90% # Class of executed instruction
system.cpu.op_class::MemRead                     1533     19.71%     86.61% # Class of executed instruction
system.cpu.op_class::MemWrite                    1028     13.22%     99.83% # Class of executed instruction
system.cpu.op_class::FloatMemRead                   3      0.04%     99.87% # Class of executed instruction
system.cpu.op_class::FloatMemWrite                 10      0.13%    100.00% # Class of executed instruction
system.cpu.op_class::IprAccess                      0      0.00%    100.00% # Class of executed instruction
system.cpu.op_class::InstPrefetch                   0      0.00%    100.00% # Class of executed instruction
system.cpu.op_class::total                       7776                       # Class of executed instruction
system.membus.snoop_filter.tot_requests             0                       # Total number of requests made to the snoop filter.
system.membus.snoop_filter.hit_single_requests            0                       # Number of requests hitting in the snoop filter with a single holder of the requested data.
system.membus.snoop_filter.hit_multi_requests            0                       # Number of requests hitting in the snoop filter with multiple (>1) holders of the requested data.
system.membus.snoop_filter.tot_snoops               0                       # Total number of snoops made to the snoop filter.
system.membus.snoop_filter.hit_single_snoops            0                       # Number of snoops hitting in the snoop filter with a single holder of the requested data.
system.membus.snoop_filter.hit_multi_snoops            0                       # Number of snoops hitting in the snoop filter with multiple (>1) holders of the requested data.
system.membus.pwrStateResidencyTicks::UNDEFINED    199008000                       # Cumulative time (in ticks) in various power states
system.membus.trans_dist::ReadReq                6120                       # Transaction distribution
system.membus.trans_dist::ReadResp               6120                       # Transaction distribution
system.membus.trans_dist::WritebackDirty         6104                       # Transaction distribution
system.membus.pkt_count_system.cache.mem_side::system.mem_ctrl.port        18344                       # Packet count per connected master and slave (bytes)
system.membus.pkt_count::total                  18344                       # Packet count per connected master and slave (bytes)
system.membus.pkt_size_system.cache.mem_side::system.mem_ctrl.port       782336                       # Cumulative packet size per connected master and slave (bytes)
system.membus.pkt_size::total                  782336                       # Cumulative packet size per connected master and slave (bytes)
system.membus.snoops                                0                       # Total snoops (count)
system.membus.snoopTraffic                          0                       # Total snoop traffic (bytes)
system.membus.snoop_fanout::samples              6120                       # Request fanout histogram
system.membus.snoop_fanout::mean                    0                       # Request fanout histogram
system.membus.snoop_fanout::stdev                   0                       # Request fanout histogram
system.membus.snoop_fanout::underflows              0      0.00%      0.00% # Request fanout histogram
system.membus.snoop_fanout::0                    6120    100.00%    100.00% # Request fanout histogram
system.membus.snoop_fanout::overflows               0      0.00%    100.00% # Request fanout histogram
system.membus.snoop_fanout::min_value               0                       # Request fanout histogram
system.membus.snoop_fanout::max_value               0                       # Request fanout histogram
system.membus.snoop_fanout::total                6120                       # Request fanout histogram
system.membus.reqLayer0.occupancy            36640000                       # Layer occupancy (ticks)
system.membus.reqLayer0.utilization              18.4                       # Layer utilization (%)
system.membus.respLayer0.occupancy           30910250                       # Layer occupancy (ticks)
system.membus.respLayer0.utilization             15.5                       # Layer utilization (%)

---------- End Simulation Statistics   ----------
