intTypesOg

---------- Begin Simulation Statistics ----------
sim_seconds                                  0.000006                       # Number of seconds simulated
sim_ticks                                     6351500                       # Number of ticks simulated
final_tick                                    6351500                       # Number of ticks from beginning of simulation (restored from checkpoints and never reset)
sim_freq                                 1000000000000                       # Frequency of simulated ticks
host_inst_rate                                1880641                       # Simulator instruction rate (inst/s)
host_op_rate                                  1877854                       # Simulator op (including micro ops) rate (op/s)
host_tick_rate                              940405686                       # Simulator tick rate (ticks/s)
host_mem_usage                           18014398508315284                       # Number of bytes of host memory used
host_seconds                                     0.01                       # Real time elapsed on the host
sim_insts                                       12668                       # Number of instructions simulated
sim_ops                                         12668                       # Number of ops (including micro ops) simulated



system.membus.pkt_count_system.cpu.icache_port::system.mem_ctrls.port        25360                       # Packet count per connected master and slave (bytes)
system.membus.pkt_count_system.cpu.dcache_port::system.mem_ctrls.port         9018                       # Packet count per connected master and slave (bytes)
system.membus.pkt_size_system.cpu.icache_port::system.mem_ctrls.port        50720                       # Cumulative packet size per connected master and slave (bytes)
system.membus.pkt_size_system.cpu.dcache_port::system.mem_ctrls.port        34600                       # Cumulative packet size per connected master and slave (bytes)
