processSpaceOg

---------- Begin Simulation Statistics ----------
sim_seconds                                  0.000006                       # Number of seconds simulated
sim_ticks                                     5992500                       # Number of ticks simulated
final_tick                                    5992500                       # Number of ticks from beginning of simulation (restored from checkpoints and never reset)
sim_freq                                 1000000000000                       # Frequency of simulated ticks
host_inst_rate                                1844054                       # Simulator instruction rate (inst/s)
host_op_rate                                  1841497                       # Simulator op (including micro ops) rate (op/s)
host_tick_rate                              921923077                       # Simulator tick rate (ticks/s)
host_mem_usage                           18014398508315284                       # Number of bytes of host memory used
host_seconds                                     0.01                       # Real time elapsed on the host
sim_insts                                       11955                       # Number of instructions simulated
sim_ops                                         11955                       # Number of ops (including micro ops) simulated



system.membus.pkt_count_system.cpu.icache_port::system.mem_ctrls.port        23934                       # Packet count per connected master and slave (bytes)
system.membus.pkt_count_system.cpu.dcache_port::system.mem_ctrls.port         9472                       # Packet count per connected master and slave (bytes)
system.membus.pkt_size_system.cpu.icache_port::system.mem_ctrls.port        47868                       # Cumulative packet size per connected master and slave (bytes)
system.membus.pkt_size_system.cpu.dcache_port::system.mem_ctrls.port        32780                       # Cumulative packet size per connected master and slave (bytes)
