ptrsStuctOg

---------- Begin Simulation Statistics ----------
sim_seconds                                  0.000004                       # Number of seconds simulated
sim_ticks                                     3880500                       # Number of ticks simulated
final_tick                                    3880500                       # Number of ticks from beginning of simulation (restored from checkpoints and never reset)
sim_freq                                 1000000000000                       # Frequency of simulated ticks
host_inst_rate                                1697103                       # Simulator instruction rate (inst/s)
host_op_rate                                  1693757                       # Simulator op (including micro ops) rate (op/s)
host_tick_rate                              848567680                       # Simulator tick rate (ticks/s)
host_mem_usage                           18014398508325524                       # Number of bytes of host memory used
host_seconds                                     0.00                       # Real time elapsed on the host
sim_insts                                        7732                       # Number of instructions simulated
sim_ops                                          7732                       # Number of ops (including micro ops) simulated



system.membus.pkt_count_system.cpu.icache_port::system.mem_ctrls.port        15488                       # Packet count per connected master and slave (bytes)
system.membus.pkt_count_system.cpu.dcache_port::system.mem_ctrls.port         5116                       # Packet count per connected master and slave (bytes)
system.membus.pkt_size_system.cpu.icache_port::system.mem_ctrls.port        30976                       # Cumulative packet size per connected master and slave (bytes)
system.membus.pkt_size_system.cpu.dcache_port::system.mem_ctrls.port        19464                       # Cumulative packet size per connected master and slave (bytes)
