ptrsStructFifo

---------- Begin Simulation Statistics ----------
sim_seconds                                  0.000200                       # Number of seconds simulated
sim_ticks                                   199584000                       # Number of ticks simulated
final_tick                                  199584000                       # Number of ticks from beginning of simulation (restored from checkpoints and never reset)
sim_freq                                 1000000000000                       # Frequency of simulated ticks
host_inst_rate                                 259359                       # Simulator instruction rate (inst/s)
host_op_rate                                   259272                       # Simulator op (including micro ops) rate (op/s)
host_tick_rate                             6690265487                       # Simulator tick rate (ticks/s)
host_mem_usage                                6697108                       # Number of bytes of host memory used
host_seconds                                     0.03                       # Real time elapsed on the host
sim_insts                                        7732                       # Number of instructions simulated
sim_ops                                          7732                       # Number of ops (including micro ops) simulated



system.cache.pwrStateResidencyTicks::UNDEFINED    199584000                       # Cumulative time (in ticks) in various power states
system.cache.hits                                4172                       # Number of hits
system.cache.misses                              6130                       # Number of misses
system.cache.missLatency::samples                6130                       # Ticks for misses to the cache
system.cache.missLatency::mean           30877.977162                       # Ticks for misses to the cache
system.cache.missLatency::gmean          27538.062072                       # Ticks for misses to the cache
system.cache.missLatency::stdev          24580.682268                       # Ticks for misses to the cache
system.cache.missLatency::0-65535                5857     95.55%     95.55% # Ticks for misses to the cache
system.cache.missLatency::65536-131071            224      3.65%     99.20% # Ticks for misses to the cache
system.cache.missLatency::131072-196607            28      0.46%     99.66% # Ticks for misses to the cache
system.cache.missLatency::196608-262143             4      0.07%     99.72% # Ticks for misses to the cache
system.cache.missLatency::262144-327679            10      0.16%     99.89% # Ticks for misses to the cache
system.cache.missLatency::327680-393215             5      0.08%     99.97% # Ticks for misses to the cache
system.cache.missLatency::393216-458751             0      0.00%     99.97% # Ticks for misses to the cache
system.cache.missLatency::458752-524287             0      0.00%     99.97% # Ticks for misses to the cache
system.cache.missLatency::524288-589823             0      0.00%     99.97% # Ticks for misses to the cache
system.cache.missLatency::589824-655359             2      0.03%    100.00% # Ticks for misses to the cache
system.cache.missLatency::655360-720895             0      0.00%    100.00% # Ticks for misses to the cache
system.cache.missLatency::720896-786431             0      0.00%    100.00% # Ticks for misses to the cache
system.cache.missLatency::786432-851967             0      0.00%    100.00% # Ticks for misses to the cache
system.cache.missLatency::851968-917503             0      0.00%    100.00% # Ticks for misses to the cache
system.cache.missLatency::917504-983039             0      0.00%    100.00% # Ticks for misses to the cache
system.cache.missLatency::983040-1.04858e+06            0      0.00%    100.00% # Ticks for misses to the cache
system.cache.missLatency::total                  6130                       # Ticks for misses to the cache
system.cache.hitRatio                        0.404970                       # The ratio of hits to the total accesses to the cache
system.membus.pkt_count_system.cache.mem_side::system.mem_ctrl.port        18374                       # Packet count per connected master and slave (bytes)
system.membus.pkt_size_system.cache.mem_side::system.mem_ctrl.port       783616                       # Cumulative packet size per connected master and slave (bytes)
