ptrsStructSeq

---------- Begin Simulation Statistics ----------
sim_seconds                                  0.000190                       # Number of seconds simulated
sim_ticks                                   190340000                       # Number of ticks simulated
final_tick                                  190340000                       # Number of ticks from beginning of simulation (restored from checkpoints and never reset)
sim_freq                                 1000000000000                       # Frequency of simulated ticks
host_inst_rate                                 254300                       # Simulator instruction rate (inst/s)
host_op_rate                                   254217                       # Simulator op (including micro ops) rate (op/s)
host_tick_rate                             6256245070                       # Simulator tick rate (ticks/s)
host_mem_usage                                6706324                       # Number of bytes of host memory used
host_seconds                                     0.03                       # Real time elapsed on the host
sim_insts                                        7732                       # Number of instructions simulated
sim_ops                                          7732                       # Number of ops (including micro ops) simulated



system.cache.pwrStateResidencyTicks::UNDEFINED    190340000                       # Cumulative time (in ticks) in various power states
system.cache.hits                                4386                       # Number of hits
system.cache.misses                              5916                       # Number of misses
system.cache.missLatency::samples                5916                       # Ticks for misses to the cache
system.cache.missLatency::mean           30432.386748                       # Ticks for misses to the cache
system.cache.missLatency::gmean          27387.865129                       # Ticks for misses to the cache
system.cache.missLatency::stdev          22393.008338                       # Ticks for misses to the cache
system.cache.missLatency::0-65535                5663     95.72%     95.72% # Ticks for misses to the cache
system.cache.missLatency::65536-131071            214      3.62%     99.34% # Ticks for misses to the cache
system.cache.missLatency::131072-196607            27      0.46%     99.80% # Ticks for misses to the cache
system.cache.missLatency::196608-262143             0      0.00%     99.80% # Ticks for misses to the cache
system.cache.missLatency::262144-327679             6      0.10%     99.90% # Ticks for misses to the cache
system.cache.missLatency::327680-393215             4      0.07%     99.97% # Ticks for misses to the cache
system.cache.missLatency::393216-458751             1      0.02%     99.98% # Ticks for misses to the cache
system.cache.missLatency::458752-524287             0      0.00%     99.98% # Ticks for misses to the cache
system.cache.missLatency::524288-589823             0      0.00%     99.98% # Ticks for misses to the cache
system.cache.missLatency::589824-655359             1      0.02%    100.00% # Ticks for misses to the cache
system.cache.missLatency::655360-720895             0      0.00%    100.00% # Ticks for misses to the cache
system.cache.missLatency::720896-786431             0      0.00%    100.00% # Ticks for misses to the cache
system.cache.missLatency::786432-851967             0      0.00%    100.00% # Ticks for misses to the cache
system.cache.missLatency::851968-917503             0      0.00%    100.00% # Ticks for misses to the cache
system.cache.missLatency::917504-983039             0      0.00%    100.00% # Ticks for misses to the cache
system.cache.missLatency::983040-1.04858e+06            0      0.00%    100.00% # Ticks for misses to the cache
system.cache.missLatency::total                  5916                       # Ticks for misses to the cache
system.cache.hitRatio                        0.425743                       # The ratio of hits to the total accesses to the cache
system.membus.pkt_count_system.cache.mem_side::system.mem_ctrl.port        17732                       # Packet count per connected master and slave (bytes)
system.membus.pkt_size_system.cache.mem_side::system.mem_ctrl.port       756224                       # Cumulative packet size per connected master and slave (bytes)
