ptrsStringsFifo

---------- Begin Simulation Statistics ----------
sim_seconds                                  0.000219                       # Number of seconds simulated
sim_ticks                                   218518000                       # Number of ticks simulated
final_tick                                  218518000                       # Number of ticks from beginning of simulation (restored from checkpoints and never reset)
sim_freq                                 1000000000000                       # Frequency of simulated ticks
host_inst_rate                                 265995                       # Simulator instruction rate (inst/s)
host_op_rate                                   265922                       # Simulator op (including micro ops) rate (op/s)
host_tick_rate                             6650576742                       # Simulator tick rate (ticks/s)
host_mem_usage                                6706324                       # Number of bytes of host memory used
host_seconds                                     0.03                       # Real time elapsed on the host
sim_insts                                        8735                       # Number of instructions simulated
sim_ops                                          8735                       # Number of ops (including micro ops) simulated



system.cache.pwrStateResidencyTicks::UNDEFINED    218518000                       # Cumulative time (in ticks) in various power states
system.cache.hits                                5114                       # Number of hits
system.cache.misses                              6548                       # Number of misses
system.cache.missLatency::samples                6548                       # Ticks for misses to the cache
system.cache.missLatency::mean           31590.714722                       # Ticks for misses to the cache
system.cache.missLatency::gmean          28104.072584                       # Ticks for misses to the cache
system.cache.missLatency::stdev          23776.513793                       # Ticks for misses to the cache
system.cache.missLatency::0-65535                6220     94.99%     94.99% # Ticks for misses to the cache
system.cache.missLatency::65536-131071            277      4.23%     99.22% # Ticks for misses to the cache
system.cache.missLatency::131072-196607            32      0.49%     99.71% # Ticks for misses to the cache
system.cache.missLatency::196608-262143             5      0.08%     99.79% # Ticks for misses to the cache
system.cache.missLatency::262144-327679             8      0.12%     99.91% # Ticks for misses to the cache
system.cache.missLatency::327680-393215             5      0.08%     99.98% # Ticks for misses to the cache
system.cache.missLatency::393216-458751             0      0.00%     99.98% # Ticks for misses to the cache
system.cache.missLatency::458752-524287             0      0.00%     99.98% # Ticks for misses to the cache
system.cache.missLatency::524288-589823             0      0.00%     99.98% # Ticks for misses to the cache
system.cache.missLatency::589824-655359             1      0.02%    100.00% # Ticks for misses to the cache
system.cache.missLatency::655360-720895             0      0.00%    100.00% # Ticks for misses to the cache
system.cache.missLatency::720896-786431             0      0.00%    100.00% # Ticks for misses to the cache
system.cache.missLatency::786432-851967             0      0.00%    100.00% # Ticks for misses to the cache
system.cache.missLatency::851968-917503             0      0.00%    100.00% # Ticks for misses to the cache
system.cache.missLatency::917504-983039             0      0.00%    100.00% # Ticks for misses to the cache
system.cache.missLatency::983040-1.04858e+06            0      0.00%    100.00% # Ticks for misses to the cache
system.cache.missLatency::total                  6548                       # Ticks for misses to the cache
system.cache.hitRatio                        0.438518                       # The ratio of hits to the total accesses to the cache
system.membus.pkt_count_system.cache.mem_side::system.mem_ctrl.port        19628                       # Packet count per connected master and slave (bytes)
system.membus.pkt_size_system.cache.mem_side::system.mem_ctrl.port       837120                       # Cumulative packet size per connected master and slave (bytes)
