ptrsStringsSeq

---------- Begin Simulation Statistics ----------
sim_seconds                                  0.000215                       # Number of seconds simulated
sim_ticks                                   214900000                       # Number of ticks simulated
final_tick                                  214900000                       # Number of ticks from beginning of simulation (restored from checkpoints and never reset)
sim_freq                                 1000000000000                       # Frequency of simulated ticks
host_inst_rate                                 260350                       # Simulator instruction rate (inst/s)
host_op_rate                                   260265                       # Simulator op (including micro ops) rate (op/s)
host_tick_rate                             6401167640                       # Simulator tick rate (ticks/s)
host_mem_usage                                6706324                       # Number of bytes of host memory used
host_seconds                                     0.03                       # Real time elapsed on the host
sim_insts                                        8735                       # Number of instructions simulated
sim_ops                                          8735                       # Number of ops (including micro ops) simulated



system.cache.pwrStateResidencyTicks::UNDEFINED    214900000                       # Cumulative time (in ticks) in various power states
system.cache.hits                                5399                       # Number of hits
system.cache.misses                              6263                       # Number of misses
system.cache.missLatency::samples                6263                       # Ticks for misses to the cache
system.cache.missLatency::mean           32450.582788                       # Ticks for misses to the cache
system.cache.missLatency::gmean          28580.016750                       # Ticks for misses to the cache
system.cache.missLatency::stdev          25637.912005                       # Ticks for misses to the cache
system.cache.missLatency::0-65535                5920     94.52%     94.52% # Ticks for misses to the cache
system.cache.missLatency::65536-131071            282      4.50%     99.03% # Ticks for misses to the cache
system.cache.missLatency::131072-196607            42      0.67%     99.70% # Ticks for misses to the cache
system.cache.missLatency::196608-262143             6      0.10%     99.79% # Ticks for misses to the cache
system.cache.missLatency::262144-327679             8      0.13%     99.92% # Ticks for misses to the cache
system.cache.missLatency::327680-393215             0      0.00%     99.92% # Ticks for misses to the cache
system.cache.missLatency::393216-458751             3      0.05%     99.97% # Ticks for misses to the cache
system.cache.missLatency::458752-524287             0      0.00%     99.97% # Ticks for misses to the cache
system.cache.missLatency::524288-589823             0      0.00%     99.97% # Ticks for misses to the cache
system.cache.missLatency::589824-655359             2      0.03%    100.00% # Ticks for misses to the cache
system.cache.missLatency::655360-720895             0      0.00%    100.00% # Ticks for misses to the cache
system.cache.missLatency::720896-786431             0      0.00%    100.00% # Ticks for misses to the cache
system.cache.missLatency::786432-851967             0      0.00%    100.00% # Ticks for misses to the cache
system.cache.missLatency::851968-917503             0      0.00%    100.00% # Ticks for misses to the cache
system.cache.missLatency::917504-983039             0      0.00%    100.00% # Ticks for misses to the cache
system.cache.missLatency::983040-1.04858e+06            0      0.00%    100.00% # Ticks for misses to the cache
system.cache.missLatency::total                  6263                       # Ticks for misses to the cache
system.cache.hitRatio                        0.462957                       # The ratio of hits to the total accesses to the cache
system.membus.pkt_count_system.cache.mem_side::system.mem_ctrl.port        18773                       # Packet count per connected master and slave (bytes)
system.membus.pkt_size_system.cache.mem_side::system.mem_ctrl.port       800640                       # Cumulative packet size per connected master and slave (bytes)
